 Abaqus/Standard 2021                  DATE 21-3ÔÂ-2024 TIME 03:59:27
 SUMMARY OF JOB INFORMATION:
 STEP  INC ATT SEVERE EQUIL TOTAL  TOTAL      STEP       INC OF       DOF    IF
               DISCON ITERS ITERS  TIME/    TIME/LPF    TIME/LPF    MONITOR RIKS
               ITERS               FREQ
   1     1   1     0     5     5  1.00e-07   1.00e-07   1.000e-07 
   1     2   1     0     4     4  2.00e-07   2.00e-07   1.000e-07 
   1     3   1     0     2     2  3.00e-07   3.00e-07   1.000e-07 
   1     4   1     0     1     1  4.50e-07   4.50e-07   1.500e-07 
   1     5   1     0     1     1  6.75e-07   6.75e-07   2.250e-07 
   1     6   1     0     1     1  1.01e-06   1.01e-06   3.375e-07 
   1     7   1     0     1     1  1.52e-06   1.52e-06   5.063e-07 
   1     8   1     0     1     1  2.28e-06   2.28e-06   7.594e-07 
   1     9   1     0     1     1  3.42e-06   3.42e-06   1.139e-06 
   1    10   1     0     1     1  5.13e-06   5.13e-06   1.709e-06 
   1    11   1     0     1     1  7.69e-06   7.69e-06   2.563e-06 
   1    12   1     0     1     1  1.15e-05   1.15e-05   3.844e-06 
   1    13   1     0     1     1  1.73e-05   1.73e-05   5.767e-06 
   1    14   1     0     1     1  2.59e-05   2.59e-05   8.650e-06 
   1    15   1     0     1     1  3.89e-05   3.89e-05   1.297e-05 
   1    16   1     0     1     1  5.84e-05   5.84e-05   1.946e-05 
   1    17   1     0     1     1  8.76e-05   8.76e-05   2.919e-05 
   1    18   1     0     1     1  0.000131   0.000131   4.379e-05 
   1    19   1     0     1     1  0.000197   0.000197   6.568e-05 
   1    20   1     0     1     1  0.000296   0.000296   9.853e-05 
   1    21   1     0     1     1  0.000443   0.000443   0.0001478 
   1    22   1     0     1     1  0.000665   0.000665   0.0002217 
   1    23   1     0     1     1  0.000998   0.000998   0.0003325 
   1    24   1     0     1     1  0.00150    0.00150    0.0004988 
   1    25   1     0     1     1  0.00224    0.00224    0.0007482 
   1    26   1     0     1     1  0.00337    0.00337    0.001122  
   1    27   1     0     1     1  0.00505    0.00505    0.001683  
   1    28   1     0     1     1  0.00758    0.00758    0.002525  
   1    29   1     0     1     1  0.0114     0.0114     0.003788  
   1    30   1     0     1     1  0.0170     0.0170     0.005682  
   1    31   1     0     1     1  0.0256     0.0256     0.008522  
   1    32   1     0     1     1  0.0384     0.0384     0.01278   
   1    33   1     0     1     1  0.0575     0.0575     0.01918   
   1    34   1     0     1     1  0.0863     0.0863     0.02876   
   1    35   1     0     1     1  0.129      0.129      0.04314   
   1    36   1     0     1     1  0.194      0.194      0.06472   
   1    37   1     0     1     1  0.291      0.291      0.09707   
   1    38   1     0     1     1  0.437      0.437      0.1456    
   1    39   1     0     1     1  0.655      0.655      0.2184    
   1    40   1     0     2     2  0.983      0.983      0.3276    
   1    41   1     0     1     1  1.00       1.00       0.01713   
                          
 THE ANALYSIS HAS COMPLETED SUCCESSFULLY
