*Heading
** Job name: Job-Model_springback Model name: springback_base
** Generated by: Abaqus/CAE 2021
*Preprint, echo=NO, model=NO, history=NO, contact=NO
**
** PARTS
**
**
** ASSEMBLY
**
*Assembly, name=Assembly
**  
*Instance, library=Job-Model_base, instance=strip
** 
** PREDEFINED FIELD
** 
** Name: Predefined Field-1   Type: Initial State
*Import, state=yes, update=yes
*End Instance
**  
*End Assembly
*Amplitude, name=amp_basic, definition=SMOOTH STEP
             0.,              0.,             0.1,              1.
** 
** MATERIALS
** 
*Material, name=AL
*Damping, alpha=130.
*Density
 2.7e-09,
*Elastic
69000., 0.37
*Plastic
 155.239,          0.
 157.258, 0.000240422
 159.064, 0.000565474
 160.741, 0.000913373
 162.366,  0.00134193
 163.901,  0.00187177
 165.351,  0.00236361
 166.748,  0.00284653
  168.08,     0.00342
 170.396,  0.00391011
 171.484,   0.0044491
 172.516,  0.00512775
 173.581,  0.00590409
 174.556,   0.0067017
   175.4,  0.00751166
 176.326,  0.00831897
 177.145,  0.00912814
 177.886,  0.00986952
 178.663,   0.0107276
 179.419,    0.011615
** ... 20 like lines cut
** 
** BOUNDARY CONDITIONS
** 
** Name: strip_fixed Type: Symmetry/Antisymmetry/Encastre
*Boundary
strip.set_fixed, ENCASTRE
** ----------------------------------------------------------------
** 
** STEP: Step-1
** 
*Step, name=Step-1, nlgeom=YES, inc=10000
*Static
1e-07, 1., 1e-10, 1.
** 
** OUTPUT REQUESTS
** 
*Restart, write, frequency=0
** 
** FIELD OUTPUT: F-Output-1
** 
*Output, field, variable=PRESELECT
** 
** HISTORY OUTPUT: H-Output-1
** 
*Output, history, variable=PRESELECT
*End Step
