1

   Abaqus 2021                                  Date 21-3ÔÂ-2024   Time 03:59:23
   For use by Supplied by Team-SolidSQUAD under license from Dassault Systemes or its subsidiary.

                                                                                 
                                                                                 
 STEP    1     INCREMENT     1     STEP TIME    0.00    


                        S T E P       1     S T A T I C   A N A L Y S I S


                                                                                          

     AUTOMATIC TIME CONTROL WITH -
          A SUGGESTED INITIAL TIME INCREMENT OF                1.000E-07
          AND A TOTAL TIME PERIOD OF                            1.00    
          THE MINIMUM TIME INCREMENT ALLOWED IS                1.000E-10
          THE MAXIMUM TIME INCREMENT ALLOWED IS                 1.00    

     LINEAR EQUATION SOLVER TYPE         DIRECT SPARSE

 CONVERGENCE TOLERANCE PARAMETERS FOR FORCE    
     CRITERION FOR RESIDUAL FORCE     FOR A NONLINEAR PROBLEM          5.000E-03
     CRITERION FOR DISP.    CORRECTION IN A NONLINEAR PROBLEM          1.000E-02
     INITIAL VALUE OF TIME AVERAGE FORCE                               1.000E-02
     AVERAGE FORCE     IS TIME AVERAGE FORCE    
     ALTERNATE CRIT. FOR RESIDUAL FORCE     FOR A NONLINEAR PROBLEM    2.000E-02
     CRITERION FOR ZERO FORCE     RELATIVE TO TIME AVRG. FORCE         1.000E-05
     CRITERION FOR RESIDUAL FORCE     WHEN THERE IS ZERO FLUX          1.000E-05
     CRITERION FOR DISP.    CORRECTION WHEN THERE IS ZERO FLUX         1.000E-03
     CRITERION FOR RESIDUAL FORCE     FOR A LINEAR INCREMENT           1.000E-08
     FIELD CONVERSION RATIO                                             1.00    
     CRITERION FOR ZERO FORCE     REL. TO TIME AVRG. MAX. FORCE        1.000E-05
     CRITERION FOR ZERO DISP.    RELATIVE TO CHARACTERISTIC LENGTH     1.000E-08

     VOLUMETRIC STRAIN COMPATIBILITY TOLERANCE FOR HYBRID SOLIDS       1.000E-05
     AXIAL STRAIN COMPATIBILITY TOLERANCE FOR HYBRID BEAMS             1.000E-05
     TRANS. SHEAR STRAIN COMPATIBILITY TOLERANCE FOR HYBRID BEAMS      1.000E-05
     SOFT CONTACT CONSTRAINT COMPATIBILITY TOLERANCE FOR P>P0          5.000E-03
     SOFT CONTACT CONSTRAINT COMPATIBILITY TOLERANCE FOR P=0.0         0.100    
     CONTACT FORCE ERROR TOLERANCE FOR CONVERT SDI=YES                 1.00    
     DISPLACEMENT COMPATIBILITY TOLERANCE FOR DCOUP ELEMENTS           1.000E-05
     ROTATION COMPATIBILITY TOLERANCE FOR DCOUP ELEMENTS               1.000E-05

 EQUILIBRIUM WILL BE CHECKED FOR SEVERE DISCONTINUITY ITERATIONS

 TIME INCREMENTATION CONTROL PARAMETERS:
     FIRST EQUILIBRIUM ITERATION FOR CONSECUTIVE DIVERGENCE CHECK              4
     EQUILIBRIUM ITERATION AT WHICH LOG. CONVERGENCE RATE CHECK BEGINS         8
     EQUILIBRIUM ITERATION AFTER WHICH ALTERNATE RESIDUAL IS USED              9
     MAXIMUM EQUILIBRIUM ITERATIONS ALLOWED                                   16
     EQUILIBRIUM ITERATION COUNT FOR CUT-BACK IN NEXT INCREMENT               10
     MAXIMUM EQUILIB. ITERS IN TWO INCREMENTS FOR TIME INCREMENT INCREASE      4
     MAXIMUM ITERATIONS FOR SEVERE DISCONTINUITIES                            50
     MAXIMUM ATTEMPTS ALLOWED IN AN INCREMENT                                  5
     MAXIMUM DISCON. ITERS IN TWO INCREMENTS FOR TIME INCREMENT INCREASE      50
     MAXIMUM CONTACT AUGMENTATIONS FOR *SURFACE BEHAVIOR,AUGMENTED LAGRANGE   50
     CUT-BACK FACTOR AFTER DIVERGENCE                                 0.2500    
     CUT-BACK FACTOR FOR TOO SLOW CONVERGENCE                         0.5000    
     CUT-BACK FACTOR AFTER TOO MANY EQUILIBRIUM ITERATIONS            0.7500    
     CUT-BACK FACTOR AFTER TOO MANY SEVERE DISCONTINUITY ITERATIONS   0.2500    
     CUT-BACK FACTOR AFTER PROBLEMS IN ELEMENT ASSEMBLY               0.2500    
     INCREASE FACTOR AFTER TWO INCREMENTS THAT CONVERGE QUICKLY        1.500    
     MAX. TIME INCREMENT INCREASE FACTOR ALLOWED                       1.500    
     MAX. TIME INCREMENT INCREASE FACTOR ALLOWED (DYNAMICS)            1.250    
     MAX. TIME INCREMENT INCREASE FACTOR ALLOWED (DIFFUSION)           2.000    
     MINIMUM TIME INCREMENT RATIO FOR EXTRAPOLATION TO OCCUR          0.1000    
     MAX. RATIO OF TIME INCREMENT TO STABILITY LIMIT                   1.000    
     FRACTION OF STABILITY LIMIT FOR NEW TIME INCREMENT               0.9500    
     TIME INCREMENT INCREASE FACTOR BEFORE A TIME POINT                1.000    
     GLOBAL STABILIZATION CONTROL IS NOT USED

          PRINT OF INCREMENT NUMBER, TIME, ETC., EVERY    1  INCREMENTS

     THE MAXIMUM NUMBER OF INCREMENTS IN THIS STEP IS                   10000

          LARGE DISPLACEMENT THEORY WILL BE USED

     LINEAR EXTRAPOLATION WILL BE USED

     CHARACTERISTIC ELEMENT LENGTH     0.491    

     DETAILS REGARDING ACTUAL SOLUTION WAVEFRONT REQUESTED

     DETAILED OUTPUT OF DIAGNOSTICS TO DATABASE REQUESTED

     PRINT OF INCREMENT NUMBER, TIME, ETC., TO THE MESSAGE FILE EVERY     1  INCREMENTS

     ELEMENT OPERATIONS WILL BE CARRIED OUT IN PARALLEL USING  16 PROCESSORS

     PARALLEL CONTACT TRACKING ENABLED



  INCREMENT     1 STARTS. ATTEMPT NUMBER  1, TIME INCREMENT  1.000E-07
 
     INITIAL ELEMENT LOAD BALANCE
            PROCESS    1   THREAD     NUMBER OF ELEMENTS
                              1            53
                              2            53
                              3            53
                              4            53
                              5            53
                              6            53
                              7            57
                              8            53
                              9            53
                             10            53
                             11            53
                             12            53
                             13            53
                             14            53
                             15            53
                             16            53

  NUMBER OF EQUATIONS =      4536     NUMBER OF RHS =    1
  NUMBER OF FLOATING PT. OPERATIONS =  6.58E+07

  USING THE DIRECT SOLVER WITH  16 PROCESSORS

     CHECK POINT   START OF SOLVER    

     CHECK POINT  END OF SOLVER       

       ELAPSED USER TIME (SEC)      =   24.000    
       ELAPSED SYSTEM TIME (SEC)    =   10.100    
       ELAPSED TOTAL CPU TIME (SEC) =   34.100    
       ELAPSED WALLCLOCK TIME (SEC) =          3

               CONVERGENCE CHECKS FOR EQUILIBRIUM ITERATION     1


 AVERAGE FORCE                      5.344E-02   TIME AVG. FORCE       5.344E-02
 LARGEST RESIDUAL FORCE             -1.13       AT NODE       1020   DOF  3
   INSTANCE: STRIP                                                                           
 LARGEST INCREMENT OF DISP.        -1.356E-02   AT NODE       1014   DOF  2
   INSTANCE: STRIP                                                                           
 LARGEST CORRECTION TO DISP.       -1.356E-02   AT NODE       1014   DOF  2
   INSTANCE: STRIP                                                                           
          FORCE     EQUILIBRIUM NOT ACHIEVED WITHIN TOLERANCE.

  NUMBER OF EQUATIONS =      4536     NUMBER OF RHS =    1
  NUMBER OF FLOATING PT. OPERATIONS =  6.58E+07

  USING THE DIRECT SOLVER WITH  16 PROCESSORS

     CHECK POINT   START OF SOLVER    

     CHECK POINT  END OF SOLVER       

       ELAPSED USER TIME (SEC)      =  0.40000    
       ELAPSED SYSTEM TIME (SEC)    =   0.0000    
       ELAPSED TOTAL CPU TIME (SEC) =  0.40000    
       ELAPSED WALLCLOCK TIME (SEC) =          0
 

 ***WARNING: THE SYSTEM MATRIX HAS 1 NEGATIVE EIGENVALUES.

     NEGATIVE EIGENVALUES MEAN THAT THE SYSTEM MATRIX IS NOT 
     POSITIVE DEFINITE:
     FOR EXAMPLE, A BIFURCATION (BUCKLING) LOAD MAY HAVE BEEN EXCEEDED.

               CONVERGENCE CHECKS FOR EQUILIBRIUM ITERATION     2


 AVERAGE FORCE                      5.054E-02   TIME AVG. FORCE       5.054E-02
 LARGEST RESIDUAL FORCE             0.497       AT NODE         38   DOF  3
   INSTANCE: STRIP                                                                           
 LARGEST INCREMENT OF DISP.        -1.464E-02   AT NODE          6   DOF  2
   INSTANCE: STRIP                                                                           
 LARGEST CORRECTION TO DISP.        2.891E-03   AT NODE       1014   DOF  1
   INSTANCE: STRIP                                                                           
          FORCE     EQUILIBRIUM NOT ACHIEVED WITHIN TOLERANCE.

  NUMBER OF EQUATIONS =      4536     NUMBER OF RHS =    1
  NUMBER OF FLOATING PT. OPERATIONS =  6.58E+07

  USING THE DIRECT SOLVER WITH  16 PROCESSORS

     CHECK POINT   START OF SOLVER    

     CHECK POINT  END OF SOLVER       

       ELAPSED USER TIME (SEC)      =  0.30000    
       ELAPSED SYSTEM TIME (SEC)    =  0.10000    
       ELAPSED TOTAL CPU TIME (SEC) =  0.40000    
       ELAPSED WALLCLOCK TIME (SEC) =          0

               CONVERGENCE CHECKS FOR EQUILIBRIUM ITERATION     3


 AVERAGE FORCE                      4.867E-02   TIME AVG. FORCE       4.867E-02
 LARGEST RESIDUAL FORCE            -0.108       AT NODE       1069   DOF  3
   INSTANCE: STRIP                                                                           
 LARGEST INCREMENT OF DISP.        -1.525E-02   AT NODE          6   DOF  2
   INSTANCE: STRIP                                                                           
 LARGEST CORRECTION TO DISP.        1.215E-03   AT NODE       1012   DOF  3
   INSTANCE: STRIP                                                                           
          FORCE     EQUILIBRIUM NOT ACHIEVED WITHIN TOLERANCE.

  NUMBER OF EQUATIONS =      4536     NUMBER OF RHS =    1
  NUMBER OF FLOATING PT. OPERATIONS =  6.58E+07

  USING THE DIRECT SOLVER WITH  16 PROCESSORS

     CHECK POINT   START OF SOLVER    

     CHECK POINT  END OF SOLVER       

       ELAPSED USER TIME (SEC)      =  0.30000    
       ELAPSED SYSTEM TIME (SEC)    =  0.10000    
       ELAPSED TOTAL CPU TIME (SEC) =  0.40000    
       ELAPSED WALLCLOCK TIME (SEC) =          1

               CONVERGENCE CHECKS FOR EQUILIBRIUM ITERATION     4


 AVERAGE FORCE                      4.876E-02   TIME AVG. FORCE       4.876E-02
 LARGEST RESIDUAL FORCE            -1.393E-03   AT NODE       1097   DOF  3
   INSTANCE: STRIP                                                                           
 LARGEST INCREMENT OF DISP.        -1.530E-02   AT NODE       1014   DOF  2
   INSTANCE: STRIP                                                                           
 LARGEST CORRECTION TO DISP.       -8.922E-04   AT NODE       1014   DOF  3
   INSTANCE: STRIP                                                                           
          FORCE     EQUILIBRIUM NOT ACHIEVED WITHIN TOLERANCE.

  NUMBER OF EQUATIONS =      4536     NUMBER OF RHS =    1
  NUMBER OF FLOATING PT. OPERATIONS =  6.58E+07

  USING THE DIRECT SOLVER WITH  16 PROCESSORS

     CHECK POINT   START OF SOLVER    

     CHECK POINT  END OF SOLVER       

       ELAPSED USER TIME (SEC)      =  0.20000    
       ELAPSED SYSTEM TIME (SEC)    =   0.0000    
       ELAPSED TOTAL CPU TIME (SEC) =  0.20000    
       ELAPSED WALLCLOCK TIME (SEC) =          0

               CONVERGENCE CHECKS FOR EQUILIBRIUM ITERATION     5


 AVERAGE FORCE                      4.876E-02   TIME AVG. FORCE       4.876E-02
 LARGEST RESIDUAL FORCE            -1.485E-05   AT NODE         12   DOF  1
   INSTANCE: STRIP                                                                           
 LARGEST INCREMENT OF DISP.        -1.530E-02   AT NODE          6   DOF  2
   INSTANCE: STRIP                                                                           
 LARGEST CORRECTION TO DISP.        3.354E-05   AT NODE       1015   DOF  3
   INSTANCE: STRIP                                                                           
          THE FORCE     EQUILIBRIUM EQUATIONS HAVE CONVERGED

 ITERATION SUMMARY FOR THE INCREMENT:   5 TOTAL ITERATIONS, OF WHICH
   0 ARE SEVERE DISCONTINUITY ITERATIONS AND  5 ARE EQUILIBRIUM ITERATIONS.

 TIME INCREMENT COMPLETED  1.000E-07,  FRACTION OF STEP COMPLETED  1.000E-07
 STEP TIME COMPLETED       1.000E-07,  TOTAL TIME COMPLETED        1.000E-07


  INCREMENT     2 STARTS. ATTEMPT NUMBER  1, TIME INCREMENT  1.000E-07

  NUMBER OF EQUATIONS =      4536     NUMBER OF RHS =    1
  NUMBER OF FLOATING PT. OPERATIONS =  6.58E+07

  USING THE DIRECT SOLVER WITH  16 PROCESSORS

     CHECK POINT   START OF SOLVER    

     CHECK POINT  END OF SOLVER       

       ELAPSED USER TIME (SEC)      =  0.30000    
       ELAPSED SYSTEM TIME (SEC)    =  0.20000    
       ELAPSED TOTAL CPU TIME (SEC) =  0.50000    
       ELAPSED WALLCLOCK TIME (SEC) =          0

               CONVERGENCE CHECKS FOR EQUILIBRIUM ITERATION     1


 AVERAGE FORCE                      6.649E-02   TIME AVG. FORCE       5.762E-02
 LARGEST RESIDUAL FORCE             -8.14       AT NODE       1019   DOF  3
   INSTANCE: STRIP                                                                           
 LARGEST INCREMENT OF DISP.        -1.450E-03   AT NODE       1013   DOF  1
   INSTANCE: STRIP                                                                           
 LARGEST CORRECTION TO DISP.        1.548E-02   AT NODE          6   DOF  2
   INSTANCE: STRIP                                                                           
          FORCE     EQUILIBRIUM NOT ACHIEVED WITHIN TOLERANCE.

  NUMBER OF EQUATIONS =      4536     NUMBER OF RHS =    1
  NUMBER OF FLOATING PT. OPERATIONS =  6.58E+07

  USING THE DIRECT SOLVER WITH  16 PROCESSORS

     CHECK POINT   START OF SOLVER    

     CHECK POINT  END OF SOLVER       

       ELAPSED USER TIME (SEC)      =  0.50000    
       ELAPSED SYSTEM TIME (SEC)    =   0.0000    
       ELAPSED TOTAL CPU TIME (SEC) =  0.50000    
       ELAPSED WALLCLOCK TIME (SEC) =          0
 

 ***WARNING: THE SYSTEM MATRIX HAS 1 NEGATIVE EIGENVALUES.
             EXPLANATIONS ARE SUGGESTED AFTER THE FIRST OCCURRENCE OF THIS MESSAGE.

               CONVERGENCE CHECKS FOR EQUILIBRIUM ITERATION     2


 AVERAGE FORCE                      4.869E-02   TIME AVG. FORCE       4.872E-02
 LARGEST RESIDUAL FORCE            -0.214       AT NODE       1062   DOF  3
   INSTANCE: STRIP                                                                           
 LARGEST INCREMENT OF DISP.         7.679E-05   AT NODE       1015   DOF  3
   INSTANCE: STRIP                                                                           
 LARGEST CORRECTION TO DISP.        1.433E-03   AT NODE          5   DOF  1
   INSTANCE: STRIP                                                                           
          FORCE     EQUILIBRIUM NOT ACHIEVED WITHIN TOLERANCE.

  NUMBER OF EQUATIONS =      4536     NUMBER OF RHS =    1
  NUMBER OF FLOATING PT. OPERATIONS =  6.58E+07

  USING THE DIRECT SOLVER WITH  16 PROCESSORS

     CHECK POINT   START OF SOLVER    

     CHECK POINT  END OF SOLVER       

       ELAPSED USER TIME (SEC)      =  0.20000    
       ELAPSED SYSTEM TIME (SEC)    =   0.0000    
       ELAPSED TOTAL CPU TIME (SEC) =  0.20000    
       ELAPSED WALLCLOCK TIME (SEC) =          0

               CONVERGENCE CHECKS FOR EQUILIBRIUM ITERATION     3


 AVERAGE FORCE                      4.866E-02   TIME AVG. FORCE       4.871E-02
 LARGEST RESIDUAL FORCE             1.048E-03   AT NODE       1075   DOF  3
   INSTANCE: STRIP                                                                           
 LARGEST INCREMENT OF DISP.        -1.056E-05   AT NODE          7   DOF  3
   INSTANCE: STRIP                                                                           
 LARGEST CORRECTION TO DISP.       -8.734E-05   AT NODE       1015   DOF  3
   INSTANCE: STRIP                                                                           
          FORCE     EQUILIBRIUM NOT ACHIEVED WITHIN TOLERANCE.

  NUMBER OF EQUATIONS =      4536     NUMBER OF RHS =    1
  NUMBER OF FLOATING PT. OPERATIONS =  6.58E+07

  USING THE DIRECT SOLVER WITH  16 PROCESSORS

     CHECK POINT   START OF SOLVER    

     CHECK POINT  END OF SOLVER       

       ELAPSED USER TIME (SEC)      =  0.30000    
       ELAPSED SYSTEM TIME (SEC)    =  0.10000    
       ELAPSED TOTAL CPU TIME (SEC) =  0.40000    
       ELAPSED WALLCLOCK TIME (SEC) =          1

               CONVERGENCE CHECKS FOR EQUILIBRIUM ITERATION     4


 AVERAGE FORCE                      4.866E-02   TIME AVG. FORCE       4.871E-02
 LARGEST RESIDUAL FORCE             3.103E-08   AT NODE       1062   DOF  3
   INSTANCE: STRIP                                                                           
 LARGEST INCREMENT OF DISP.         2.715E-07   AT NODE        566   DOF  1
   INSTANCE: STRIP                                                                           
 LARGEST CORRECTION TO DISP.        1.057E-05   AT NODE          7   DOF  3
   INSTANCE: STRIP                                                                           
 ESTIMATE OF DISP.    CORRECTION    3.130E-10
 FORCE     EQUILIB. ACCEPTED BASED ON SMALL RESIDUAL AND ESTIMATED CORRECTION

 ITERATION SUMMARY FOR THE INCREMENT:   4 TOTAL ITERATIONS, OF WHICH
   0 ARE SEVERE DISCONTINUITY ITERATIONS AND  4 ARE EQUILIBRIUM ITERATIONS.

 TIME INCREMENT COMPLETED  1.000E-07,  FRACTION OF STEP COMPLETED  2.000E-07
 STEP TIME COMPLETED       2.000E-07,  TOTAL TIME COMPLETED        2.000E-07


  INCREMENT     3 STARTS. ATTEMPT NUMBER  1, TIME INCREMENT  1.000E-07

  NUMBER OF EQUATIONS =      4536     NUMBER OF RHS =    1
  NUMBER OF FLOATING PT. OPERATIONS =  6.58E+07

  USING THE DIRECT SOLVER WITH  16 PROCESSORS

     CHECK POINT   START OF SOLVER    

     CHECK POINT  END OF SOLVER       

       ELAPSED USER TIME (SEC)      =  0.70000    
       ELAPSED SYSTEM TIME (SEC)    =  0.10000    
       ELAPSED TOTAL CPU TIME (SEC) =  0.80000    
       ELAPSED WALLCLOCK TIME (SEC) =          0

               CONVERGENCE CHECKS FOR EQUILIBRIUM ITERATION     1


 AVERAGE FORCE                      4.866E-02   TIME AVG. FORCE       4.869E-02
 LARGEST RESIDUAL FORCE             1.937E-06   AT NODE         62   DOF  3
   INSTANCE: STRIP                                                                           
 LARGEST INCREMENT OF DISP.        -1.245E-08   AT NODE       1015   DOF  1
   INSTANCE: STRIP                                                                           
 LARGEST CORRECTION TO DISP.       -2.824E-07   AT NODE        566   DOF  1
   INSTANCE: STRIP                                                                           
          DISP.    CORRECTION TOO LARGE COMPARED TO DISP.    INCREMENT

  NUMBER OF EQUATIONS =      4536     NUMBER OF RHS =    1
  NUMBER OF FLOATING PT. OPERATIONS =  6.58E+07

  USING THE DIRECT SOLVER WITH  16 PROCESSORS

     CHECK POINT   START OF SOLVER    

     CHECK POINT  END OF SOLVER       

       ELAPSED USER TIME (SEC)      =  0.20000    
       ELAPSED SYSTEM TIME (SEC)    =  0.10000    
       ELAPSED TOTAL CPU TIME (SEC) =  0.30000    
       ELAPSED WALLCLOCK TIME (SEC) =          0

               CONVERGENCE CHECKS FOR EQUILIBRIUM ITERATION     2


 AVERAGE FORCE                      4.866E-02   TIME AVG. FORCE       4.869E-02
 LARGEST RESIDUAL FORCE            -3.263E-11   AT NODE         54   DOF  3
   INSTANCE: STRIP                                                                           
 LARGEST INCREMENT OF DISP.        -1.226E-08   AT NODE       1015   DOF  1
   INSTANCE: STRIP                                                                           
 LARGEST CORRECTION TO DISP.        3.044E-10   AT NODE        566   DOF  1
   INSTANCE: STRIP                                                                           
          THE FORCE     EQUILIBRIUM EQUATIONS HAVE CONVERGED
          TIME INCREMENT MAY NOW INCREASE TO    1.500E-07

 ITERATION SUMMARY FOR THE INCREMENT:   2 TOTAL ITERATIONS, OF WHICH
   0 ARE SEVERE DISCONTINUITY ITERATIONS AND  2 ARE EQUILIBRIUM ITERATIONS.

 TIME INCREMENT COMPLETED  1.000E-07,  FRACTION OF STEP COMPLETED  3.000E-07
 STEP TIME COMPLETED       3.000E-07,  TOTAL TIME COMPLETED        3.000E-07


  INCREMENT     4 STARTS. ATTEMPT NUMBER  1, TIME INCREMENT  1.500E-07

  NUMBER OF EQUATIONS =      4536     NUMBER OF RHS =    1
  NUMBER OF FLOATING PT. OPERATIONS =  6.58E+07

  USING THE DIRECT SOLVER WITH  16 PROCESSORS

     CHECK POINT   START OF SOLVER    

     CHECK POINT  END OF SOLVER       

       ELAPSED USER TIME (SEC)      =  0.60000    
       ELAPSED SYSTEM TIME (SEC)    =   0.0000    
       ELAPSED TOTAL CPU TIME (SEC) =  0.60000    
       ELAPSED WALLCLOCK TIME (SEC) =          0

               CONVERGENCE CHECKS FOR EQUILIBRIUM ITERATION     1


 AVERAGE FORCE                      4.866E-02   TIME AVG. FORCE       4.868E-02
 LARGEST RESIDUAL FORCE            -5.865E-12   AT NODE        518   DOF  2
   INSTANCE: STRIP                                                                           
 LARGEST INCREMENT OF DISP.        -1.829E-08   AT NODE        511   DOF  1
   INSTANCE: STRIP                                                                           
 LARGEST CORRECTION TO DISP.       -1.148E-09   AT NODE          6   DOF  3
   INSTANCE: STRIP                                                                           
          THE FORCE     EQUILIBRIUM RESPONSE WAS LINEAR IN THIS INCREMENT
          TIME INCREMENT MAY NOW INCREASE TO    2.250E-07

 ITERATION SUMMARY FOR THE INCREMENT:   1 TOTAL ITERATIONS, OF WHICH
   0 ARE SEVERE DISCONTINUITY ITERATIONS AND  1 ARE EQUILIBRIUM ITERATIONS.

 TIME INCREMENT COMPLETED  1.500E-07,  FRACTION OF STEP COMPLETED  4.500E-07
 STEP TIME COMPLETED       4.500E-07,  TOTAL TIME COMPLETED        4.500E-07


  INCREMENT     5 STARTS. ATTEMPT NUMBER  1, TIME INCREMENT  2.250E-07

  NUMBER OF EQUATIONS =      4536     NUMBER OF RHS =    1
  NUMBER OF FLOATING PT. OPERATIONS =  6.58E+07

  USING THE DIRECT SOLVER WITH  16 PROCESSORS

     CHECK POINT   START OF SOLVER    

     CHECK POINT  END OF SOLVER       

       ELAPSED USER TIME (SEC)      =  0.30000    
       ELAPSED SYSTEM TIME (SEC)    =   0.0000    
       ELAPSED TOTAL CPU TIME (SEC) =  0.30000    
       ELAPSED WALLCLOCK TIME (SEC) =          1

               CONVERGENCE CHECKS FOR EQUILIBRIUM ITERATION     1


 AVERAGE FORCE                      4.866E-02   TIME AVG. FORCE       4.868E-02
 LARGEST RESIDUAL FORCE             3.286E-14   AT NODE       1028   DOF  3
   INSTANCE: STRIP                                                                           
 LARGEST INCREMENT OF DISP.        -2.743E-08   AT NODE        511   DOF  1
   INSTANCE: STRIP                                                                           
 LARGEST CORRECTION TO DISP.       -6.237E-12   AT NODE       1015   DOF  3
   INSTANCE: STRIP                                                                           
          THE FORCE     EQUILIBRIUM RESPONSE WAS LINEAR IN THIS INCREMENT
          TIME INCREMENT MAY NOW INCREASE TO    3.375E-07

 ITERATION SUMMARY FOR THE INCREMENT:   1 TOTAL ITERATIONS, OF WHICH
   0 ARE SEVERE DISCONTINUITY ITERATIONS AND  1 ARE EQUILIBRIUM ITERATIONS.

 TIME INCREMENT COMPLETED  2.250E-07,  FRACTION OF STEP COMPLETED  6.750E-07
 STEP TIME COMPLETED       6.750E-07,  TOTAL TIME COMPLETED        6.750E-07


  INCREMENT     6 STARTS. ATTEMPT NUMBER  1, TIME INCREMENT  3.375E-07

  NUMBER OF EQUATIONS =      4536     NUMBER OF RHS =    1
  NUMBER OF FLOATING PT. OPERATIONS =  6.58E+07

  USING THE DIRECT SOLVER WITH  16 PROCESSORS

     CHECK POINT   START OF SOLVER    

     CHECK POINT  END OF SOLVER       

       ELAPSED USER TIME (SEC)      =  0.20000    
       ELAPSED SYSTEM TIME (SEC)    =  0.10000    
       ELAPSED TOTAL CPU TIME (SEC) =  0.30000    
       ELAPSED WALLCLOCK TIME (SEC) =          0

               CONVERGENCE CHECKS FOR EQUILIBRIUM ITERATION     1


 AVERAGE FORCE                      4.866E-02   TIME AVG. FORCE       4.867E-02
 LARGEST RESIDUAL FORCE             3.214E-14   AT NODE        527   DOF  3
   INSTANCE: STRIP                                                                           
 LARGEST INCREMENT OF DISP.        -4.114E-08   AT NODE        511   DOF  1
   INSTANCE: STRIP                                                                           
 LARGEST CORRECTION TO DISP.        1.592E-12   AT NODE       1015   DOF  3
   INSTANCE: STRIP                                                                           
          THE FORCE     EQUILIBRIUM RESPONSE WAS LINEAR IN THIS INCREMENT
          TIME INCREMENT MAY NOW INCREASE TO    5.063E-07

 ITERATION SUMMARY FOR THE INCREMENT:   1 TOTAL ITERATIONS, OF WHICH
   0 ARE SEVERE DISCONTINUITY ITERATIONS AND  1 ARE EQUILIBRIUM ITERATIONS.

 TIME INCREMENT COMPLETED  3.375E-07,  FRACTION OF STEP COMPLETED  1.013E-06
 STEP TIME COMPLETED       1.013E-06,  TOTAL TIME COMPLETED        1.013E-06


  INCREMENT     7 STARTS. ATTEMPT NUMBER  1, TIME INCREMENT  5.063E-07

  NUMBER OF EQUATIONS =      4536     NUMBER OF RHS =    1
  NUMBER OF FLOATING PT. OPERATIONS =  6.58E+07

  USING THE DIRECT SOLVER WITH  16 PROCESSORS

     CHECK POINT   START OF SOLVER    

     CHECK POINT  END OF SOLVER       

       ELAPSED USER TIME (SEC)      =  0.40000    
       ELAPSED SYSTEM TIME (SEC)    =  0.10000    
       ELAPSED TOTAL CPU TIME (SEC) =  0.50000    
       ELAPSED WALLCLOCK TIME (SEC) =          0

               CONVERGENCE CHECKS FOR EQUILIBRIUM ITERATION     1


 AVERAGE FORCE                      4.866E-02   TIME AVG. FORCE       4.867E-02
 LARGEST RESIDUAL FORCE             4.194E-14   AT NODE        524   DOF  3
   INSTANCE: STRIP                                                                           
 LARGEST INCREMENT OF DISP.        -6.171E-08   AT NODE        511   DOF  1
   INSTANCE: STRIP                                                                           
 LARGEST CORRECTION TO DISP.        2.843E-12   AT NODE        511   DOF  3
   INSTANCE: STRIP                                                                           
          THE FORCE     EQUILIBRIUM RESPONSE WAS LINEAR IN THIS INCREMENT
          TIME INCREMENT MAY NOW INCREASE TO    7.594E-07

 ITERATION SUMMARY FOR THE INCREMENT:   1 TOTAL ITERATIONS, OF WHICH
   0 ARE SEVERE DISCONTINUITY ITERATIONS AND  1 ARE EQUILIBRIUM ITERATIONS.

 TIME INCREMENT COMPLETED  5.063E-07,  FRACTION OF STEP COMPLETED  1.519E-06
 STEP TIME COMPLETED       1.519E-06,  TOTAL TIME COMPLETED        1.519E-06


  INCREMENT     8 STARTS. ATTEMPT NUMBER  1, TIME INCREMENT  7.594E-07

  NUMBER OF EQUATIONS =      4536     NUMBER OF RHS =    1
  NUMBER OF FLOATING PT. OPERATIONS =  6.58E+07

  USING THE DIRECT SOLVER WITH  16 PROCESSORS

     CHECK POINT   START OF SOLVER    

     CHECK POINT  END OF SOLVER       

       ELAPSED USER TIME (SEC)      =  0.50000    
       ELAPSED SYSTEM TIME (SEC)    =  0.10000    
       ELAPSED TOTAL CPU TIME (SEC) =  0.60000    
       ELAPSED WALLCLOCK TIME (SEC) =          1

               CONVERGENCE CHECKS FOR EQUILIBRIUM ITERATION     1


 AVERAGE FORCE                      4.866E-02   TIME AVG. FORCE       4.867E-02
 LARGEST RESIDUAL FORCE            -3.178E-14   AT NODE        536   DOF  3
   INSTANCE: STRIP                                                                           
 LARGEST INCREMENT OF DISP.        -9.257E-08   AT NODE        511   DOF  1
   INSTANCE: STRIP                                                                           
 LARGEST CORRECTION TO DISP.       -3.239E-12   AT NODE        511   DOF  3
   INSTANCE: STRIP                                                                           
          THE FORCE     EQUILIBRIUM RESPONSE WAS LINEAR IN THIS INCREMENT
          TIME INCREMENT MAY NOW INCREASE TO    1.139E-06

 ITERATION SUMMARY FOR THE INCREMENT:   1 TOTAL ITERATIONS, OF WHICH
   0 ARE SEVERE DISCONTINUITY ITERATIONS AND  1 ARE EQUILIBRIUM ITERATIONS.

 TIME INCREMENT COMPLETED  7.594E-07,  FRACTION OF STEP COMPLETED  2.278E-06
 STEP TIME COMPLETED       2.278E-06,  TOTAL TIME COMPLETED        2.278E-06


  INCREMENT     9 STARTS. ATTEMPT NUMBER  1, TIME INCREMENT  1.139E-06

  NUMBER OF EQUATIONS =      4536     NUMBER OF RHS =    1
  NUMBER OF FLOATING PT. OPERATIONS =  6.58E+07

  USING THE DIRECT SOLVER WITH  16 PROCESSORS

     CHECK POINT   START OF SOLVER    

     CHECK POINT  END OF SOLVER       

       ELAPSED USER TIME (SEC)      =  0.40000    
       ELAPSED SYSTEM TIME (SEC)    =   0.0000    
       ELAPSED TOTAL CPU TIME (SEC) =  0.40000    
       ELAPSED WALLCLOCK TIME (SEC) =          0

               CONVERGENCE CHECKS FOR EQUILIBRIUM ITERATION     1


 AVERAGE FORCE                      4.866E-02   TIME AVG. FORCE       4.867E-02
 LARGEST RESIDUAL FORCE             2.509E-14   AT NODE        530   DOF  3
   INSTANCE: STRIP                                                                           
 LARGEST INCREMENT OF DISP.        -1.389E-07   AT NODE        511   DOF  1
   INSTANCE: STRIP                                                                           
 LARGEST CORRECTION TO DISP.       -1.817E-14   AT NODE          3   DOF  3
   INSTANCE: STRIP                                                                           
          THE FORCE     EQUILIBRIUM RESPONSE WAS LINEAR IN THIS INCREMENT
          TIME INCREMENT MAY NOW INCREASE TO    1.709E-06

 ITERATION SUMMARY FOR THE INCREMENT:   1 TOTAL ITERATIONS, OF WHICH
   0 ARE SEVERE DISCONTINUITY ITERATIONS AND  1 ARE EQUILIBRIUM ITERATIONS.

 TIME INCREMENT COMPLETED  1.139E-06,  FRACTION OF STEP COMPLETED  3.417E-06
 STEP TIME COMPLETED       3.417E-06,  TOTAL TIME COMPLETED        3.417E-06


  INCREMENT    10 STARTS. ATTEMPT NUMBER  1, TIME INCREMENT  1.709E-06

  NUMBER OF EQUATIONS =      4536     NUMBER OF RHS =    1
  NUMBER OF FLOATING PT. OPERATIONS =  6.58E+07

  USING THE DIRECT SOLVER WITH  16 PROCESSORS

     CHECK POINT   START OF SOLVER    

     CHECK POINT  END OF SOLVER       

       ELAPSED USER TIME (SEC)      =  0.40000    
       ELAPSED SYSTEM TIME (SEC)    =  0.10000    
       ELAPSED TOTAL CPU TIME (SEC) =  0.50000    
       ELAPSED WALLCLOCK TIME (SEC) =          0

               CONVERGENCE CHECKS FOR EQUILIBRIUM ITERATION     1


 AVERAGE FORCE                      4.866E-02   TIME AVG. FORCE       4.867E-02
 LARGEST RESIDUAL FORCE             2.319E-14   AT NODE        786   DOF  3
   INSTANCE: STRIP                                                                           
 LARGEST INCREMENT OF DISP.        -2.083E-07   AT NODE        511   DOF  1
   INSTANCE: STRIP                                                                           
 LARGEST CORRECTION TO DISP.        4.186E-13   AT NODE        511   DOF  3
   INSTANCE: STRIP                                                                           
          THE FORCE     EQUILIBRIUM RESPONSE WAS LINEAR IN THIS INCREMENT
          TIME INCREMENT MAY NOW INCREASE TO    2.563E-06

 ITERATION SUMMARY FOR THE INCREMENT:   1 TOTAL ITERATIONS, OF WHICH
   0 ARE SEVERE DISCONTINUITY ITERATIONS AND  1 ARE EQUILIBRIUM ITERATIONS.

 TIME INCREMENT COMPLETED  1.709E-06,  FRACTION OF STEP COMPLETED  5.126E-06
 STEP TIME COMPLETED       5.126E-06,  TOTAL TIME COMPLETED        5.126E-06


  INCREMENT    11 STARTS. ATTEMPT NUMBER  1, TIME INCREMENT  2.563E-06

  NUMBER OF EQUATIONS =      4536     NUMBER OF RHS =    1
  NUMBER OF FLOATING PT. OPERATIONS =  6.58E+07

  USING THE DIRECT SOLVER WITH  16 PROCESSORS

     CHECK POINT   START OF SOLVER    

     CHECK POINT  END OF SOLVER       

       ELAPSED USER TIME (SEC)      =  0.30000    
       ELAPSED SYSTEM TIME (SEC)    =  0.10000    
       ELAPSED TOTAL CPU TIME (SEC) =  0.40000    
       ELAPSED WALLCLOCK TIME (SEC) =          1

               CONVERGENCE CHECKS FOR EQUILIBRIUM ITERATION     1


 AVERAGE FORCE                      4.866E-02   TIME AVG. FORCE       4.867E-02
 LARGEST RESIDUAL FORCE            -3.086E-14   AT NODE        516   DOF  3
   INSTANCE: STRIP                                                                           
 LARGEST INCREMENT OF DISP.        -3.124E-07   AT NODE        511   DOF  1
   INSTANCE: STRIP                                                                           
 LARGEST CORRECTION TO DISP.        3.161E-12   AT NODE        511   DOF  3
   INSTANCE: STRIP                                                                           
          THE FORCE     EQUILIBRIUM RESPONSE WAS LINEAR IN THIS INCREMENT
          TIME INCREMENT MAY NOW INCREASE TO    3.844E-06

 ITERATION SUMMARY FOR THE INCREMENT:   1 TOTAL ITERATIONS, OF WHICH
   0 ARE SEVERE DISCONTINUITY ITERATIONS AND  1 ARE EQUILIBRIUM ITERATIONS.

 TIME INCREMENT COMPLETED  2.563E-06,  FRACTION OF STEP COMPLETED  7.689E-06
 STEP TIME COMPLETED       7.689E-06,  TOTAL TIME COMPLETED        7.689E-06


  INCREMENT    12 STARTS. ATTEMPT NUMBER  1, TIME INCREMENT  3.844E-06

  NUMBER OF EQUATIONS =      4536     NUMBER OF RHS =    1
  NUMBER OF FLOATING PT. OPERATIONS =  6.58E+07

  USING THE DIRECT SOLVER WITH  16 PROCESSORS

     CHECK POINT   START OF SOLVER    

     CHECK POINT  END OF SOLVER       

       ELAPSED USER TIME (SEC)      =  0.60000    
       ELAPSED SYSTEM TIME (SEC)    =   0.0000    
       ELAPSED TOTAL CPU TIME (SEC) =  0.60000    
       ELAPSED WALLCLOCK TIME (SEC) =          0

               CONVERGENCE CHECKS FOR EQUILIBRIUM ITERATION     1


 AVERAGE FORCE                      4.866E-02   TIME AVG. FORCE       4.867E-02
 LARGEST RESIDUAL FORCE             6.309E-14   AT NODE        524   DOF  3
   INSTANCE: STRIP                                                                           
 LARGEST INCREMENT OF DISP.        -4.686E-07   AT NODE        511   DOF  1
   INSTANCE: STRIP                                                                           
 LARGEST CORRECTION TO DISP.       -2.520E-12   AT NODE        511   DOF  3
   INSTANCE: STRIP                                                                           
          THE FORCE     EQUILIBRIUM RESPONSE WAS LINEAR IN THIS INCREMENT
          TIME INCREMENT MAY NOW INCREASE TO    5.767E-06

 ITERATION SUMMARY FOR THE INCREMENT:   1 TOTAL ITERATIONS, OF WHICH
   0 ARE SEVERE DISCONTINUITY ITERATIONS AND  1 ARE EQUILIBRIUM ITERATIONS.

 TIME INCREMENT COMPLETED  3.844E-06,  FRACTION OF STEP COMPLETED  1.153E-05
 STEP TIME COMPLETED       1.153E-05,  TOTAL TIME COMPLETED        1.153E-05


  INCREMENT    13 STARTS. ATTEMPT NUMBER  1, TIME INCREMENT  5.767E-06

  NUMBER OF EQUATIONS =      4536     NUMBER OF RHS =    1
  NUMBER OF FLOATING PT. OPERATIONS =  6.58E+07

  USING THE DIRECT SOLVER WITH  16 PROCESSORS

     CHECK POINT   START OF SOLVER    

     CHECK POINT  END OF SOLVER       

       ELAPSED USER TIME (SEC)      =  0.30000    
       ELAPSED SYSTEM TIME (SEC)    =  0.10000    
       ELAPSED TOTAL CPU TIME (SEC) =  0.40000    
       ELAPSED WALLCLOCK TIME (SEC) =          0

               CONVERGENCE CHECKS FOR EQUILIBRIUM ITERATION     1


 AVERAGE FORCE                      4.866E-02   TIME AVG. FORCE       4.867E-02
 LARGEST RESIDUAL FORCE            -4.172E-14   AT NODE        517   DOF  3
   INSTANCE: STRIP                                                                           
 LARGEST INCREMENT OF DISP.        -7.030E-07   AT NODE        511   DOF  1
   INSTANCE: STRIP                                                                           
 LARGEST CORRECTION TO DISP.       -1.264E-12   AT NODE        511   DOF  3
   INSTANCE: STRIP                                                                           
          THE FORCE     EQUILIBRIUM RESPONSE WAS LINEAR IN THIS INCREMENT
          TIME INCREMENT MAY NOW INCREASE TO    8.650E-06

 ITERATION SUMMARY FOR THE INCREMENT:   1 TOTAL ITERATIONS, OF WHICH
   0 ARE SEVERE DISCONTINUITY ITERATIONS AND  1 ARE EQUILIBRIUM ITERATIONS.

 TIME INCREMENT COMPLETED  5.767E-06,  FRACTION OF STEP COMPLETED  1.730E-05
 STEP TIME COMPLETED       1.730E-05,  TOTAL TIME COMPLETED        1.730E-05


  INCREMENT    14 STARTS. ATTEMPT NUMBER  1, TIME INCREMENT  8.650E-06

  NUMBER OF EQUATIONS =      4536     NUMBER OF RHS =    1
  NUMBER OF FLOATING PT. OPERATIONS =  6.58E+07

  USING THE DIRECT SOLVER WITH  16 PROCESSORS

     CHECK POINT   START OF SOLVER    

     CHECK POINT  END OF SOLVER       

       ELAPSED USER TIME (SEC)      =  0.30000    
       ELAPSED SYSTEM TIME (SEC)    =  0.10000    
       ELAPSED TOTAL CPU TIME (SEC) =  0.40000    
       ELAPSED WALLCLOCK TIME (SEC) =          1

               CONVERGENCE CHECKS FOR EQUILIBRIUM ITERATION     1


 AVERAGE FORCE                      4.866E-02   TIME AVG. FORCE       4.867E-02
 LARGEST RESIDUAL FORCE             3.789E-14   AT NODE        536   DOF  3
   INSTANCE: STRIP                                                                           
 LARGEST INCREMENT OF DISP.        -1.054E-06   AT NODE        511   DOF  1
   INSTANCE: STRIP                                                                           
 LARGEST CORRECTION TO DISP.        2.090E-12   AT NODE       1015   DOF  3
   INSTANCE: STRIP                                                                           
          THE FORCE     EQUILIBRIUM RESPONSE WAS LINEAR IN THIS INCREMENT
          TIME INCREMENT MAY NOW INCREASE TO    1.297E-05

 ITERATION SUMMARY FOR THE INCREMENT:   1 TOTAL ITERATIONS, OF WHICH
   0 ARE SEVERE DISCONTINUITY ITERATIONS AND  1 ARE EQUILIBRIUM ITERATIONS.

 TIME INCREMENT COMPLETED  8.650E-06,  FRACTION OF STEP COMPLETED  2.595E-05
 STEP TIME COMPLETED       2.595E-05,  TOTAL TIME COMPLETED        2.595E-05


  INCREMENT    15 STARTS. ATTEMPT NUMBER  1, TIME INCREMENT  1.297E-05

  NUMBER OF EQUATIONS =      4536     NUMBER OF RHS =    1
  NUMBER OF FLOATING PT. OPERATIONS =  6.58E+07

  USING THE DIRECT SOLVER WITH  16 PROCESSORS

     CHECK POINT   START OF SOLVER    

     CHECK POINT  END OF SOLVER       

       ELAPSED USER TIME (SEC)      =  0.40000    
       ELAPSED SYSTEM TIME (SEC)    =  0.10000    
       ELAPSED TOTAL CPU TIME (SEC) =  0.50000    
       ELAPSED WALLCLOCK TIME (SEC) =          0

               CONVERGENCE CHECKS FOR EQUILIBRIUM ITERATION     1


 AVERAGE FORCE                      4.866E-02   TIME AVG. FORCE       4.866E-02
 LARGEST RESIDUAL FORCE            -7.377E-14   AT NODE        530   DOF  3
   INSTANCE: STRIP                                                                           
 LARGEST INCREMENT OF DISP.        -1.582E-06   AT NODE        511   DOF  1
   INSTANCE: STRIP                                                                           
 LARGEST CORRECTION TO DISP.       -1.108E-12   AT NODE          6   DOF  3
   INSTANCE: STRIP                                                                           
          THE FORCE     EQUILIBRIUM RESPONSE WAS LINEAR IN THIS INCREMENT
          TIME INCREMENT MAY NOW INCREASE TO    1.946E-05

 ITERATION SUMMARY FOR THE INCREMENT:   1 TOTAL ITERATIONS, OF WHICH
   0 ARE SEVERE DISCONTINUITY ITERATIONS AND  1 ARE EQUILIBRIUM ITERATIONS.

 TIME INCREMENT COMPLETED  1.297E-05,  FRACTION OF STEP COMPLETED  3.892E-05
 STEP TIME COMPLETED       3.892E-05,  TOTAL TIME COMPLETED        3.892E-05


  INCREMENT    16 STARTS. ATTEMPT NUMBER  1, TIME INCREMENT  1.946E-05

  NUMBER OF EQUATIONS =      4536     NUMBER OF RHS =    1
  NUMBER OF FLOATING PT. OPERATIONS =  6.58E+07

  USING THE DIRECT SOLVER WITH  16 PROCESSORS

     CHECK POINT   START OF SOLVER    

     CHECK POINT  END OF SOLVER       

       ELAPSED USER TIME (SEC)      =  0.50000    
       ELAPSED SYSTEM TIME (SEC)    =  0.20000    
       ELAPSED TOTAL CPU TIME (SEC) =  0.70000    
       ELAPSED WALLCLOCK TIME (SEC) =          0

               CONVERGENCE CHECKS FOR EQUILIBRIUM ITERATION     1


 AVERAGE FORCE                      4.866E-02   TIME AVG. FORCE       4.866E-02
 LARGEST RESIDUAL FORCE            -3.147E-14   AT NODE        993   DOF  3
   INSTANCE: STRIP                                                                           
 LARGEST INCREMENT OF DISP.        -2.372E-06   AT NODE        511   DOF  1
   INSTANCE: STRIP                                                                           
 LARGEST CORRECTION TO DISP.        2.251E-12   AT NODE          6   DOF  2
   INSTANCE: STRIP                                                                           
          THE FORCE     EQUILIBRIUM RESPONSE WAS LINEAR IN THIS INCREMENT
          TIME INCREMENT MAY NOW INCREASE TO    2.919E-05

 ITERATION SUMMARY FOR THE INCREMENT:   1 TOTAL ITERATIONS, OF WHICH
   0 ARE SEVERE DISCONTINUITY ITERATIONS AND  1 ARE EQUILIBRIUM ITERATIONS.

 TIME INCREMENT COMPLETED  1.946E-05,  FRACTION OF STEP COMPLETED  5.839E-05
 STEP TIME COMPLETED       5.839E-05,  TOTAL TIME COMPLETED        5.839E-05


  INCREMENT    17 STARTS. ATTEMPT NUMBER  1, TIME INCREMENT  2.919E-05

  NUMBER OF EQUATIONS =      4536     NUMBER OF RHS =    1
  NUMBER OF FLOATING PT. OPERATIONS =  6.58E+07

  USING THE DIRECT SOLVER WITH  16 PROCESSORS

     CHECK POINT   START OF SOLVER    

     CHECK POINT  END OF SOLVER       

       ELAPSED USER TIME (SEC)      =  0.50000    
       ELAPSED SYSTEM TIME (SEC)    =   0.0000    
       ELAPSED TOTAL CPU TIME (SEC) =  0.50000    
       ELAPSED WALLCLOCK TIME (SEC) =          1

               CONVERGENCE CHECKS FOR EQUILIBRIUM ITERATION     1


 AVERAGE FORCE                      4.866E-02   TIME AVG. FORCE       4.866E-02
 LARGEST RESIDUAL FORCE             6.128E-14   AT NODE       1028   DOF  3
   INSTANCE: STRIP                                                                           
 LARGEST INCREMENT OF DISP.        -3.559E-06   AT NODE        511   DOF  1
   INSTANCE: STRIP                                                                           
 LARGEST CORRECTION TO DISP.        5.062E-12   AT NODE       1014   DOF  2
   INSTANCE: STRIP                                                                           
          THE FORCE     EQUILIBRIUM RESPONSE WAS LINEAR IN THIS INCREMENT
          TIME INCREMENT MAY NOW INCREASE TO    4.379E-05

 ITERATION SUMMARY FOR THE INCREMENT:   1 TOTAL ITERATIONS, OF WHICH
   0 ARE SEVERE DISCONTINUITY ITERATIONS AND  1 ARE EQUILIBRIUM ITERATIONS.

 TIME INCREMENT COMPLETED  2.919E-05,  FRACTION OF STEP COMPLETED  8.758E-05
 STEP TIME COMPLETED       8.758E-05,  TOTAL TIME COMPLETED        8.758E-05


  INCREMENT    18 STARTS. ATTEMPT NUMBER  1, TIME INCREMENT  4.379E-05

  NUMBER OF EQUATIONS =      4536     NUMBER OF RHS =    1
  NUMBER OF FLOATING PT. OPERATIONS =  6.58E+07

  USING THE DIRECT SOLVER WITH  16 PROCESSORS

     CHECK POINT   START OF SOLVER    

     CHECK POINT  END OF SOLVER       

       ELAPSED USER TIME (SEC)      =  0.30000    
       ELAPSED SYSTEM TIME (SEC)    =  0.10000    
       ELAPSED TOTAL CPU TIME (SEC) =  0.40000    
       ELAPSED WALLCLOCK TIME (SEC) =          0

               CONVERGENCE CHECKS FOR EQUILIBRIUM ITERATION     1


 AVERAGE FORCE                      4.865E-02   TIME AVG. FORCE       4.866E-02
 LARGEST RESIDUAL FORCE            -1.064E-13   AT NODE        518   DOF  2
   INSTANCE: STRIP                                                                           
 LARGEST INCREMENT OF DISP.        -5.338E-06   AT NODE        511   DOF  1
   INSTANCE: STRIP                                                                           
 LARGEST CORRECTION TO DISP.        1.139E-11   AT NODE          6   DOF  2
   INSTANCE: STRIP                                                                           
          THE FORCE     EQUILIBRIUM RESPONSE WAS LINEAR IN THIS INCREMENT
          TIME INCREMENT MAY NOW INCREASE TO    6.568E-05

 ITERATION SUMMARY FOR THE INCREMENT:   1 TOTAL ITERATIONS, OF WHICH
   0 ARE SEVERE DISCONTINUITY ITERATIONS AND  1 ARE EQUILIBRIUM ITERATIONS.

 TIME INCREMENT COMPLETED  4.379E-05,  FRACTION OF STEP COMPLETED  1.314E-04
 STEP TIME COMPLETED       1.314E-04,  TOTAL TIME COMPLETED        1.314E-04


  INCREMENT    19 STARTS. ATTEMPT NUMBER  1, TIME INCREMENT  6.568E-05

  NUMBER OF EQUATIONS =      4536     NUMBER OF RHS =    1
  NUMBER OF FLOATING PT. OPERATIONS =  6.58E+07

  USING THE DIRECT SOLVER WITH  16 PROCESSORS

     CHECK POINT   START OF SOLVER    

     CHECK POINT  END OF SOLVER       

       ELAPSED USER TIME (SEC)      =  0.40000    
       ELAPSED SYSTEM TIME (SEC)    =  0.10000    
       ELAPSED TOTAL CPU TIME (SEC) =  0.50000    
       ELAPSED WALLCLOCK TIME (SEC) =          0

               CONVERGENCE CHECKS FOR EQUILIBRIUM ITERATION     1


 AVERAGE FORCE                      4.865E-02   TIME AVG. FORCE       4.866E-02
 LARGEST RESIDUAL FORCE            -2.369E-13   AT NODE        518   DOF  2
   INSTANCE: STRIP                                                                           
 LARGEST INCREMENT OF DISP.        -8.007E-06   AT NODE        511   DOF  1
   INSTANCE: STRIP                                                                           
 LARGEST CORRECTION TO DISP.        2.562E-11   AT NODE       1014   DOF  2
   INSTANCE: STRIP                                                                           
          THE FORCE     EQUILIBRIUM RESPONSE WAS LINEAR IN THIS INCREMENT
          TIME INCREMENT MAY NOW INCREASE TO    9.853E-05

 ITERATION SUMMARY FOR THE INCREMENT:   1 TOTAL ITERATIONS, OF WHICH
   0 ARE SEVERE DISCONTINUITY ITERATIONS AND  1 ARE EQUILIBRIUM ITERATIONS.

 TIME INCREMENT COMPLETED  6.568E-05,  FRACTION OF STEP COMPLETED  1.971E-04
 STEP TIME COMPLETED       1.971E-04,  TOTAL TIME COMPLETED        1.971E-04


  INCREMENT    20 STARTS. ATTEMPT NUMBER  1, TIME INCREMENT  9.853E-05

  NUMBER OF EQUATIONS =      4536     NUMBER OF RHS =    1
  NUMBER OF FLOATING PT. OPERATIONS =  6.58E+07

  USING THE DIRECT SOLVER WITH  16 PROCESSORS

     CHECK POINT   START OF SOLVER    

     CHECK POINT  END OF SOLVER       

       ELAPSED USER TIME (SEC)      =  0.50000    
       ELAPSED SYSTEM TIME (SEC)    =  0.10000    
       ELAPSED TOTAL CPU TIME (SEC) =  0.60000    
       ELAPSED WALLCLOCK TIME (SEC) =          1

               CONVERGENCE CHECKS FOR EQUILIBRIUM ITERATION     1


 AVERAGE FORCE                      4.865E-02   TIME AVG. FORCE       4.866E-02
 LARGEST RESIDUAL FORCE            -5.240E-13   AT NODE        518   DOF  2
   INSTANCE: STRIP                                                                           
 LARGEST INCREMENT OF DISP.        -1.201E-05   AT NODE        511   DOF  1
   INSTANCE: STRIP                                                                           
 LARGEST CORRECTION TO DISP.        5.767E-11   AT NODE          6   DOF  2
   INSTANCE: STRIP                                                                           
          THE FORCE     EQUILIBRIUM RESPONSE WAS LINEAR IN THIS INCREMENT
          TIME INCREMENT MAY NOW INCREASE TO    1.478E-04

 ITERATION SUMMARY FOR THE INCREMENT:   1 TOTAL ITERATIONS, OF WHICH
   0 ARE SEVERE DISCONTINUITY ITERATIONS AND  1 ARE EQUILIBRIUM ITERATIONS.

 TIME INCREMENT COMPLETED  9.853E-05,  FRACTION OF STEP COMPLETED  2.956E-04
 STEP TIME COMPLETED       2.956E-04,  TOTAL TIME COMPLETED        2.956E-04


  INCREMENT    21 STARTS. ATTEMPT NUMBER  1, TIME INCREMENT  1.478E-04

  NUMBER OF EQUATIONS =      4536     NUMBER OF RHS =    1
  NUMBER OF FLOATING PT. OPERATIONS =  6.58E+07

  USING THE DIRECT SOLVER WITH  16 PROCESSORS

     CHECK POINT   START OF SOLVER    

     CHECK POINT  END OF SOLVER       

       ELAPSED USER TIME (SEC)      =  0.30000    
       ELAPSED SYSTEM TIME (SEC)    =  0.10000    
       ELAPSED TOTAL CPU TIME (SEC) =  0.40000    
       ELAPSED WALLCLOCK TIME (SEC) =          0

               CONVERGENCE CHECKS FOR EQUILIBRIUM ITERATION     1


 AVERAGE FORCE                      4.864E-02   TIME AVG. FORCE       4.866E-02
 LARGEST RESIDUAL FORCE            -1.198E-12   AT NODE        518   DOF  2
   INSTANCE: STRIP                                                                           
 LARGEST INCREMENT OF DISP.        -1.802E-05   AT NODE        511   DOF  1
   INSTANCE: STRIP                                                                           
 LARGEST CORRECTION TO DISP.        1.298E-10   AT NODE       1014   DOF  2
   INSTANCE: STRIP                                                                           
          THE FORCE     EQUILIBRIUM RESPONSE WAS LINEAR IN THIS INCREMENT
          TIME INCREMENT MAY NOW INCREASE TO    2.217E-04

 ITERATION SUMMARY FOR THE INCREMENT:   1 TOTAL ITERATIONS, OF WHICH
   0 ARE SEVERE DISCONTINUITY ITERATIONS AND  1 ARE EQUILIBRIUM ITERATIONS.

 TIME INCREMENT COMPLETED  1.478E-04,  FRACTION OF STEP COMPLETED  4.434E-04
 STEP TIME COMPLETED       4.434E-04,  TOTAL TIME COMPLETED        4.434E-04


  INCREMENT    22 STARTS. ATTEMPT NUMBER  1, TIME INCREMENT  2.217E-04

  NUMBER OF EQUATIONS =      4536     NUMBER OF RHS =    1
  NUMBER OF FLOATING PT. OPERATIONS =  6.58E+07

  USING THE DIRECT SOLVER WITH  16 PROCESSORS

     CHECK POINT   START OF SOLVER    

     CHECK POINT  END OF SOLVER       

       ELAPSED USER TIME (SEC)      =  0.20000    
       ELAPSED SYSTEM TIME (SEC)    =  0.20000    
       ELAPSED TOTAL CPU TIME (SEC) =  0.40000    
       ELAPSED WALLCLOCK TIME (SEC) =          0

               CONVERGENCE CHECKS FOR EQUILIBRIUM ITERATION     1


 AVERAGE FORCE                      4.864E-02   TIME AVG. FORCE       4.866E-02
 LARGEST RESIDUAL FORCE            -2.702E-12   AT NODE        518   DOF  2
   INSTANCE: STRIP                                                                           
 LARGEST INCREMENT OF DISP.        -2.702E-05   AT NODE        511   DOF  1
   INSTANCE: STRIP                                                                           
 LARGEST CORRECTION TO DISP.        2.920E-10   AT NODE       1014   DOF  2
   INSTANCE: STRIP                                                                           
          THE FORCE     EQUILIBRIUM RESPONSE WAS LINEAR IN THIS INCREMENT
          TIME INCREMENT MAY NOW INCREASE TO    3.325E-04

 ITERATION SUMMARY FOR THE INCREMENT:   1 TOTAL ITERATIONS, OF WHICH
   0 ARE SEVERE DISCONTINUITY ITERATIONS AND  1 ARE EQUILIBRIUM ITERATIONS.

 TIME INCREMENT COMPLETED  2.217E-04,  FRACTION OF STEP COMPLETED  6.651E-04
 STEP TIME COMPLETED       6.651E-04,  TOTAL TIME COMPLETED        6.651E-04


  INCREMENT    23 STARTS. ATTEMPT NUMBER  1, TIME INCREMENT  3.325E-04

  NUMBER OF EQUATIONS =      4536     NUMBER OF RHS =    1
  NUMBER OF FLOATING PT. OPERATIONS =  6.58E+07

  USING THE DIRECT SOLVER WITH  16 PROCESSORS

     CHECK POINT   START OF SOLVER    

     CHECK POINT  END OF SOLVER       

       ELAPSED USER TIME (SEC)      =  0.20000    
       ELAPSED SYSTEM TIME (SEC)    =  0.10000    
       ELAPSED TOTAL CPU TIME (SEC) =  0.30000    
       ELAPSED WALLCLOCK TIME (SEC) =          1

               CONVERGENCE CHECKS FOR EQUILIBRIUM ITERATION     1


 AVERAGE FORCE                      4.864E-02   TIME AVG. FORCE       4.866E-02
 LARGEST RESIDUAL FORCE            -6.074E-12   AT NODE        518   DOF  2
   INSTANCE: STRIP                                                                           
 LARGEST INCREMENT OF DISP.        -4.054E-05   AT NODE        511   DOF  1
   INSTANCE: STRIP                                                                           
 LARGEST CORRECTION TO DISP.        6.574E-10   AT NODE       1014   DOF  2
   INSTANCE: STRIP                                                                           
          THE FORCE     EQUILIBRIUM RESPONSE WAS LINEAR IN THIS INCREMENT
          TIME INCREMENT MAY NOW INCREASE TO    4.988E-04

 ITERATION SUMMARY FOR THE INCREMENT:   1 TOTAL ITERATIONS, OF WHICH
   0 ARE SEVERE DISCONTINUITY ITERATIONS AND  1 ARE EQUILIBRIUM ITERATIONS.

 TIME INCREMENT COMPLETED  3.325E-04,  FRACTION OF STEP COMPLETED  9.976E-04
 STEP TIME COMPLETED       9.976E-04,  TOTAL TIME COMPLETED        9.976E-04


  INCREMENT    24 STARTS. ATTEMPT NUMBER  1, TIME INCREMENT  4.988E-04

  NUMBER OF EQUATIONS =      4536     NUMBER OF RHS =    1
  NUMBER OF FLOATING PT. OPERATIONS =  6.58E+07

  USING THE DIRECT SOLVER WITH  16 PROCESSORS

     CHECK POINT   START OF SOLVER    

     CHECK POINT  END OF SOLVER       

       ELAPSED USER TIME (SEC)      =  0.50000    
       ELAPSED SYSTEM TIME (SEC)    =   0.0000    
       ELAPSED TOTAL CPU TIME (SEC) =  0.50000    
       ELAPSED WALLCLOCK TIME (SEC) =          0

               CONVERGENCE CHECKS FOR EQUILIBRIUM ITERATION     1


 AVERAGE FORCE                      4.863E-02   TIME AVG. FORCE       4.866E-02
 LARGEST RESIDUAL FORCE            -1.369E-11   AT NODE        518   DOF  2
   INSTANCE: STRIP                                                                           
 LARGEST INCREMENT OF DISP.        -6.080E-05   AT NODE        511   DOF  1
   INSTANCE: STRIP                                                                           
 LARGEST CORRECTION TO DISP.        1.480E-09   AT NODE       1014   DOF  2
   INSTANCE: STRIP                                                                           
          THE FORCE     EQUILIBRIUM RESPONSE WAS LINEAR IN THIS INCREMENT
          TIME INCREMENT MAY NOW INCREASE TO    7.482E-04

 ITERATION SUMMARY FOR THE INCREMENT:   1 TOTAL ITERATIONS, OF WHICH
   0 ARE SEVERE DISCONTINUITY ITERATIONS AND  1 ARE EQUILIBRIUM ITERATIONS.

 TIME INCREMENT COMPLETED  4.988E-04,  FRACTION OF STEP COMPLETED  1.496E-03
 STEP TIME COMPLETED       1.496E-03,  TOTAL TIME COMPLETED        1.496E-03


  INCREMENT    25 STARTS. ATTEMPT NUMBER  1, TIME INCREMENT  7.482E-04

  NUMBER OF EQUATIONS =      4536     NUMBER OF RHS =    1
  NUMBER OF FLOATING PT. OPERATIONS =  6.58E+07

  USING THE DIRECT SOLVER WITH  16 PROCESSORS

     CHECK POINT   START OF SOLVER    

     CHECK POINT  END OF SOLVER       

       ELAPSED USER TIME (SEC)      =  0.30000    
       ELAPSED SYSTEM TIME (SEC)    =  0.10000    
       ELAPSED TOTAL CPU TIME (SEC) =  0.40000    
       ELAPSED WALLCLOCK TIME (SEC) =          0

               CONVERGENCE CHECKS FOR EQUILIBRIUM ITERATION     1


 AVERAGE FORCE                      4.862E-02   TIME AVG. FORCE       4.866E-02
 LARGEST RESIDUAL FORCE            -3.092E-11   AT NODE        518   DOF  2
   INSTANCE: STRIP                                                                           
 LARGEST INCREMENT OF DISP.        -9.120E-05   AT NODE        511   DOF  1
   INSTANCE: STRIP                                                                           
 LARGEST CORRECTION TO DISP.        3.333E-09   AT NODE       1014   DOF  2
   INSTANCE: STRIP                                                                           
          THE FORCE     EQUILIBRIUM RESPONSE WAS LINEAR IN THIS INCREMENT
          TIME INCREMENT MAY NOW INCREASE TO    1.122E-03

 ITERATION SUMMARY FOR THE INCREMENT:   1 TOTAL ITERATIONS, OF WHICH
   0 ARE SEVERE DISCONTINUITY ITERATIONS AND  1 ARE EQUILIBRIUM ITERATIONS.

 TIME INCREMENT COMPLETED  7.482E-04,  FRACTION OF STEP COMPLETED  2.245E-03
 STEP TIME COMPLETED       2.245E-03,  TOTAL TIME COMPLETED        2.245E-03


  INCREMENT    26 STARTS. ATTEMPT NUMBER  1, TIME INCREMENT  1.122E-03

  NUMBER OF EQUATIONS =      4536     NUMBER OF RHS =    1
  NUMBER OF FLOATING PT. OPERATIONS =  6.58E+07

  USING THE DIRECT SOLVER WITH  16 PROCESSORS

     CHECK POINT   START OF SOLVER    

     CHECK POINT  END OF SOLVER       

       ELAPSED USER TIME (SEC)      =  0.50000    
       ELAPSED SYSTEM TIME (SEC)    =   0.0000    
       ELAPSED TOTAL CPU TIME (SEC) =  0.50000    
       ELAPSED WALLCLOCK TIME (SEC) =          1

               CONVERGENCE CHECKS FOR EQUILIBRIUM ITERATION     1


 AVERAGE FORCE                      4.859E-02   TIME AVG. FORCE       4.865E-02
 LARGEST RESIDUAL FORCE            -6.997E-11   AT NODE        518   DOF  2
   INSTANCE: STRIP                                                                           
 LARGEST INCREMENT OF DISP.        -1.368E-04   AT NODE        511   DOF  1
   INSTANCE: STRIP                                                                           
 LARGEST CORRECTION TO DISP.        7.509E-09   AT NODE       1014   DOF  2
   INSTANCE: STRIP                                                                           
          THE FORCE     EQUILIBRIUM RESPONSE WAS LINEAR IN THIS INCREMENT
          TIME INCREMENT MAY NOW INCREASE TO    1.683E-03

 ITERATION SUMMARY FOR THE INCREMENT:   1 TOTAL ITERATIONS, OF WHICH
   0 ARE SEVERE DISCONTINUITY ITERATIONS AND  1 ARE EQUILIBRIUM ITERATIONS.

 TIME INCREMENT COMPLETED  1.122E-03,  FRACTION OF STEP COMPLETED  3.367E-03
 STEP TIME COMPLETED       3.367E-03,  TOTAL TIME COMPLETED        3.367E-03


  INCREMENT    27 STARTS. ATTEMPT NUMBER  1, TIME INCREMENT  1.683E-03

  NUMBER OF EQUATIONS =      4536     NUMBER OF RHS =    1
  NUMBER OF FLOATING PT. OPERATIONS =  6.58E+07

  USING THE DIRECT SOLVER WITH  16 PROCESSORS

     CHECK POINT   START OF SOLVER    

     CHECK POINT  END OF SOLVER       

       ELAPSED USER TIME (SEC)      =  0.30000    
       ELAPSED SYSTEM TIME (SEC)    =   0.0000    
       ELAPSED TOTAL CPU TIME (SEC) =  0.30000    
       ELAPSED WALLCLOCK TIME (SEC) =          0

               CONVERGENCE CHECKS FOR EQUILIBRIUM ITERATION     1


 AVERAGE FORCE                      4.856E-02   TIME AVG. FORCE       4.865E-02
 LARGEST RESIDUAL FORCE            -1.588E-10   AT NODE        518   DOF  2
   INSTANCE: STRIP                                                                           
 LARGEST INCREMENT OF DISP.        -2.052E-04   AT NODE        511   DOF  1
   INSTANCE: STRIP                                                                           
 LARGEST CORRECTION TO DISP.        1.693E-08   AT NODE       1014   DOF  2
   INSTANCE: STRIP                                                                           
          THE FORCE     EQUILIBRIUM RESPONSE WAS LINEAR IN THIS INCREMENT
          TIME INCREMENT MAY NOW INCREASE TO    2.525E-03

 ITERATION SUMMARY FOR THE INCREMENT:   1 TOTAL ITERATIONS, OF WHICH
   0 ARE SEVERE DISCONTINUITY ITERATIONS AND  1 ARE EQUILIBRIUM ITERATIONS.

 TIME INCREMENT COMPLETED  1.683E-03,  FRACTION OF STEP COMPLETED  5.050E-03
 STEP TIME COMPLETED       5.050E-03,  TOTAL TIME COMPLETED        5.050E-03


  INCREMENT    28 STARTS. ATTEMPT NUMBER  1, TIME INCREMENT  2.525E-03

  NUMBER OF EQUATIONS =      4536     NUMBER OF RHS =    1
  NUMBER OF FLOATING PT. OPERATIONS =  6.58E+07

  USING THE DIRECT SOLVER WITH  16 PROCESSORS

     CHECK POINT   START OF SOLVER    

     CHECK POINT  END OF SOLVER       

       ELAPSED USER TIME (SEC)      =  0.40000    
       ELAPSED SYSTEM TIME (SEC)    =  0.10000    
       ELAPSED TOTAL CPU TIME (SEC) =  0.50000    
       ELAPSED WALLCLOCK TIME (SEC) =          0

               CONVERGENCE CHECKS FOR EQUILIBRIUM ITERATION     1


 AVERAGE FORCE                      4.852E-02   TIME AVG. FORCE       4.865E-02
 LARGEST RESIDUAL FORCE            -3.618E-10   AT NODE        518   DOF  2
   INSTANCE: STRIP                                                                           
 LARGEST INCREMENT OF DISP.        -3.078E-04   AT NODE        511   DOF  1
   INSTANCE: STRIP                                                                           
 LARGEST CORRECTION TO DISP.        3.820E-08   AT NODE       1014   DOF  2
   INSTANCE: STRIP                                                                           
          THE FORCE     EQUILIBRIUM RESPONSE WAS LINEAR IN THIS INCREMENT
          TIME INCREMENT MAY NOW INCREASE TO    3.788E-03

 ITERATION SUMMARY FOR THE INCREMENT:   1 TOTAL ITERATIONS, OF WHICH
   0 ARE SEVERE DISCONTINUITY ITERATIONS AND  1 ARE EQUILIBRIUM ITERATIONS.

 TIME INCREMENT COMPLETED  2.525E-03,  FRACTION OF STEP COMPLETED  7.575E-03
 STEP TIME COMPLETED       7.575E-03,  TOTAL TIME COMPLETED        7.575E-03


  INCREMENT    29 STARTS. ATTEMPT NUMBER  1, TIME INCREMENT  3.788E-03

  NUMBER OF EQUATIONS =      4536     NUMBER OF RHS =    1
  NUMBER OF FLOATING PT. OPERATIONS =  6.58E+07

  USING THE DIRECT SOLVER WITH  16 PROCESSORS

     CHECK POINT   START OF SOLVER    

     CHECK POINT  END OF SOLVER       

       ELAPSED USER TIME (SEC)      =  0.30000    
       ELAPSED SYSTEM TIME (SEC)    =   0.0000    
       ELAPSED TOTAL CPU TIME (SEC) =  0.30000    
       ELAPSED WALLCLOCK TIME (SEC) =          0

               CONVERGENCE CHECKS FOR EQUILIBRIUM ITERATION     1


 AVERAGE FORCE                      4.845E-02   TIME AVG. FORCE       4.864E-02
 LARGEST RESIDUAL FORCE            -8.295E-10   AT NODE        518   DOF  2
   INSTANCE: STRIP                                                                           
 LARGEST INCREMENT OF DISP.        -4.617E-04   AT NODE        511   DOF  1
   INSTANCE: STRIP                                                                           
 LARGEST CORRECTION TO DISP.        8.634E-08   AT NODE       1014   DOF  2
   INSTANCE: STRIP                                                                           
          THE FORCE     EQUILIBRIUM EQUATIONS HAVE CONVERGED
          TIME INCREMENT MAY NOW INCREASE TO    5.682E-03

 ITERATION SUMMARY FOR THE INCREMENT:   1 TOTAL ITERATIONS, OF WHICH
   0 ARE SEVERE DISCONTINUITY ITERATIONS AND  1 ARE EQUILIBRIUM ITERATIONS.

 TIME INCREMENT COMPLETED  3.788E-03,  FRACTION OF STEP COMPLETED  1.136E-02
 STEP TIME COMPLETED       1.136E-02,  TOTAL TIME COMPLETED        1.136E-02


  INCREMENT    30 STARTS. ATTEMPT NUMBER  1, TIME INCREMENT  5.682E-03

  NUMBER OF EQUATIONS =      4536     NUMBER OF RHS =    1
  NUMBER OF FLOATING PT. OPERATIONS =  6.58E+07

  USING THE DIRECT SOLVER WITH  16 PROCESSORS

     CHECK POINT   START OF SOLVER    

     CHECK POINT  END OF SOLVER       

       ELAPSED USER TIME (SEC)      =  0.20000    
       ELAPSED SYSTEM TIME (SEC)    =   0.0000    
       ELAPSED TOTAL CPU TIME (SEC) =  0.20000    
       ELAPSED WALLCLOCK TIME (SEC) =          0

               CONVERGENCE CHECKS FOR EQUILIBRIUM ITERATION     1


 AVERAGE FORCE                      4.834E-02   TIME AVG. FORCE       4.863E-02
 LARGEST RESIDUAL FORCE            -1.919E-09   AT NODE        518   DOF  2
   INSTANCE: STRIP                                                                           
 LARGEST INCREMENT OF DISP.        -6.925E-04   AT NODE        511   DOF  1
   INSTANCE: STRIP                                                                           
 LARGEST CORRECTION TO DISP.        1.956E-07   AT NODE       1014   DOF  2
   INSTANCE: STRIP                                                                           
          THE FORCE     EQUILIBRIUM EQUATIONS HAVE CONVERGED
          TIME INCREMENT MAY NOW INCREASE TO    8.522E-03

 ITERATION SUMMARY FOR THE INCREMENT:   1 TOTAL ITERATIONS, OF WHICH
   0 ARE SEVERE DISCONTINUITY ITERATIONS AND  1 ARE EQUILIBRIUM ITERATIONS.

 TIME INCREMENT COMPLETED  5.682E-03,  FRACTION OF STEP COMPLETED  1.704E-02
 STEP TIME COMPLETED       1.704E-02,  TOTAL TIME COMPLETED        1.704E-02


  INCREMENT    31 STARTS. ATTEMPT NUMBER  1, TIME INCREMENT  8.522E-03

  NUMBER OF EQUATIONS =      4536     NUMBER OF RHS =    1
  NUMBER OF FLOATING PT. OPERATIONS =  6.58E+07

  USING THE DIRECT SOLVER WITH  16 PROCESSORS

     CHECK POINT   START OF SOLVER    

     CHECK POINT  END OF SOLVER       

       ELAPSED USER TIME (SEC)      =  0.70000    
       ELAPSED SYSTEM TIME (SEC)    =  0.20000    
       ELAPSED TOTAL CPU TIME (SEC) =  0.90000    
       ELAPSED WALLCLOCK TIME (SEC) =          0

               CONVERGENCE CHECKS FOR EQUILIBRIUM ITERATION     1


 AVERAGE FORCE                      4.820E-02   TIME AVG. FORCE       4.862E-02
 LARGEST RESIDUAL FORCE            -4.500E-09   AT NODE        518   DOF  2
   INSTANCE: STRIP                                                                           
 LARGEST INCREMENT OF DISP.        -1.039E-03   AT NODE        511   DOF  1
   INSTANCE: STRIP                                                                           
 LARGEST CORRECTION TO DISP.        4.446E-07   AT NODE       1014   DOF  2
   INSTANCE: STRIP                                                                           
          THE FORCE     EQUILIBRIUM EQUATIONS HAVE CONVERGED
          TIME INCREMENT MAY NOW INCREASE TO    1.278E-02

 ITERATION SUMMARY FOR THE INCREMENT:   1 TOTAL ITERATIONS, OF WHICH
   0 ARE SEVERE DISCONTINUITY ITERATIONS AND  1 ARE EQUILIBRIUM ITERATIONS.

 TIME INCREMENT COMPLETED  8.522E-03,  FRACTION OF STEP COMPLETED  2.557E-02
 STEP TIME COMPLETED       2.557E-02,  TOTAL TIME COMPLETED        2.557E-02


  INCREMENT    32 STARTS. ATTEMPT NUMBER  1, TIME INCREMENT  1.278E-02

  NUMBER OF EQUATIONS =      4536     NUMBER OF RHS =    1
  NUMBER OF FLOATING PT. OPERATIONS =  6.58E+07

  USING THE DIRECT SOLVER WITH  16 PROCESSORS

     CHECK POINT   START OF SOLVER    

     CHECK POINT  END OF SOLVER       

       ELAPSED USER TIME (SEC)      =  0.20000    
       ELAPSED SYSTEM TIME (SEC)    =   0.0000    
       ELAPSED TOTAL CPU TIME (SEC) =  0.20000    
       ELAPSED WALLCLOCK TIME (SEC) =          0

               CONVERGENCE CHECKS FOR EQUILIBRIUM ITERATION     1


 AVERAGE FORCE                      4.799E-02   TIME AVG. FORCE       4.860E-02
 LARGEST RESIDUAL FORCE            -1.076E-08   AT NODE        518   DOF  2
   INSTANCE: STRIP                                                                           
 LARGEST INCREMENT OF DISP.        -1.558E-03   AT NODE        511   DOF  1
   INSTANCE: STRIP                                                                           
 LARGEST CORRECTION TO DISP.        1.016E-06   AT NODE       1014   DOF  2
   INSTANCE: STRIP                                                                           
          THE FORCE     EQUILIBRIUM EQUATIONS HAVE CONVERGED
          TIME INCREMENT MAY NOW INCREASE TO    1.918E-02

 ITERATION SUMMARY FOR THE INCREMENT:   1 TOTAL ITERATIONS, OF WHICH
   0 ARE SEVERE DISCONTINUITY ITERATIONS AND  1 ARE EQUILIBRIUM ITERATIONS.

 TIME INCREMENT COMPLETED  1.278E-02,  FRACTION OF STEP COMPLETED  3.835E-02
 STEP TIME COMPLETED       3.835E-02,  TOTAL TIME COMPLETED        3.835E-02


  INCREMENT    33 STARTS. ATTEMPT NUMBER  1, TIME INCREMENT  1.918E-02

  NUMBER OF EQUATIONS =      4536     NUMBER OF RHS =    1
  NUMBER OF FLOATING PT. OPERATIONS =  6.58E+07

  USING THE DIRECT SOLVER WITH  16 PROCESSORS

     CHECK POINT   START OF SOLVER    

     CHECK POINT  END OF SOLVER       

       ELAPSED USER TIME (SEC)      =  0.30000    
       ELAPSED SYSTEM TIME (SEC)    =  0.10000    
       ELAPSED TOTAL CPU TIME (SEC) =  0.40000    
       ELAPSED WALLCLOCK TIME (SEC) =          0

               CONVERGENCE CHECKS FOR EQUILIBRIUM ITERATION     1


 AVERAGE FORCE                      4.770E-02   TIME AVG. FORCE       4.857E-02
 LARGEST RESIDUAL FORCE            -2.644E-08   AT NODE        518   DOF  2
   INSTANCE: STRIP                                                                           
 LARGEST INCREMENT OF DISP.        -2.337E-03   AT NODE        511   DOF  1
   INSTANCE: STRIP                                                                           
 LARGEST CORRECTION TO DISP.        2.339E-06   AT NODE       1014   DOF  2
   INSTANCE: STRIP                                                                           
          THE FORCE     EQUILIBRIUM EQUATIONS HAVE CONVERGED
          TIME INCREMENT MAY NOW INCREASE TO    2.876E-02

 ITERATION SUMMARY FOR THE INCREMENT:   1 TOTAL ITERATIONS, OF WHICH
   0 ARE SEVERE DISCONTINUITY ITERATIONS AND  1 ARE EQUILIBRIUM ITERATIONS.

 TIME INCREMENT COMPLETED  1.918E-02,  FRACTION OF STEP COMPLETED  5.753E-02
 STEP TIME COMPLETED       5.753E-02,  TOTAL TIME COMPLETED        5.753E-02


  INCREMENT    34 STARTS. ATTEMPT NUMBER  1, TIME INCREMENT  2.876E-02

  NUMBER OF EQUATIONS =      4536     NUMBER OF RHS =    1
  NUMBER OF FLOATING PT. OPERATIONS =  6.58E+07

  USING THE DIRECT SOLVER WITH  16 PROCESSORS

     CHECK POINT   START OF SOLVER    

     CHECK POINT  END OF SOLVER       

       ELAPSED USER TIME (SEC)      =  0.40000    
       ELAPSED SYSTEM TIME (SEC)    =   0.0000    
       ELAPSED TOTAL CPU TIME (SEC) =  0.40000    
       ELAPSED WALLCLOCK TIME (SEC) =          0

               CONVERGENCE CHECKS FOR EQUILIBRIUM ITERATION     1


 AVERAGE FORCE                      4.729E-02   TIME AVG. FORCE       4.853E-02
 LARGEST RESIDUAL FORCE             7.694E-08   AT NODE        518   DOF  1
   INSTANCE: STRIP                                                                           
 LARGEST INCREMENT OF DISP.        -3.505E-03   AT NODE        511   DOF  1
   INSTANCE: STRIP                                                                           
 LARGEST CORRECTION TO DISP.        5.455E-06   AT NODE       1014   DOF  2
   INSTANCE: STRIP                                                                           
          THE FORCE     EQUILIBRIUM EQUATIONS HAVE CONVERGED
          TIME INCREMENT MAY NOW INCREASE TO    4.314E-02

 ITERATION SUMMARY FOR THE INCREMENT:   1 TOTAL ITERATIONS, OF WHICH
   0 ARE SEVERE DISCONTINUITY ITERATIONS AND  1 ARE EQUILIBRIUM ITERATIONS.

 TIME INCREMENT COMPLETED  2.876E-02,  FRACTION OF STEP COMPLETED  8.629E-02
 STEP TIME COMPLETED       8.629E-02,  TOTAL TIME COMPLETED        8.629E-02


  INCREMENT    35 STARTS. ATTEMPT NUMBER  1, TIME INCREMENT  4.314E-02

  NUMBER OF EQUATIONS =      4536     NUMBER OF RHS =    1
  NUMBER OF FLOATING PT. OPERATIONS =  6.58E+07

  USING THE DIRECT SOLVER WITH  16 PROCESSORS

     CHECK POINT   START OF SOLVER    

     CHECK POINT  END OF SOLVER       

       ELAPSED USER TIME (SEC)      =  0.50000    
       ELAPSED SYSTEM TIME (SEC)    =  0.10000    
       ELAPSED TOTAL CPU TIME (SEC) =  0.60000    
       ELAPSED WALLCLOCK TIME (SEC) =          0

               CONVERGENCE CHECKS FOR EQUILIBRIUM ITERATION     1


 AVERAGE FORCE                      4.673E-02   TIME AVG. FORCE       4.848E-02
 LARGEST RESIDUAL FORCE             2.456E-07   AT NODE        518   DOF  1
   INSTANCE: STRIP                                                                           
 LARGEST INCREMENT OF DISP.        -5.255E-03   AT NODE        511   DOF  1
   INSTANCE: STRIP                                                                           
 LARGEST CORRECTION TO DISP.        1.297E-05   AT NODE       1014   DOF  2
   INSTANCE: STRIP                                                                           
          THE FORCE     EQUILIBRIUM EQUATIONS HAVE CONVERGED
          TIME INCREMENT MAY NOW INCREASE TO    6.472E-02

 ITERATION SUMMARY FOR THE INCREMENT:   1 TOTAL ITERATIONS, OF WHICH
   0 ARE SEVERE DISCONTINUITY ITERATIONS AND  1 ARE EQUILIBRIUM ITERATIONS.

 TIME INCREMENT COMPLETED  4.314E-02,  FRACTION OF STEP COMPLETED  0.129    
 STEP TIME COMPLETED       0.129    ,  TOTAL TIME COMPLETED        0.129    


  INCREMENT    36 STARTS. ATTEMPT NUMBER  1, TIME INCREMENT  6.472E-02

  NUMBER OF EQUATIONS =      4536     NUMBER OF RHS =    1
  NUMBER OF FLOATING PT. OPERATIONS =  6.58E+07

  USING THE DIRECT SOLVER WITH  16 PROCESSORS

     CHECK POINT   START OF SOLVER    

     CHECK POINT  END OF SOLVER       

       ELAPSED USER TIME (SEC)      =  0.60000    
       ELAPSED SYSTEM TIME (SEC)    =   0.0000    
       ELAPSED TOTAL CPU TIME (SEC) =  0.60000    
       ELAPSED WALLCLOCK TIME (SEC) =          0

               CONVERGENCE CHECKS FOR EQUILIBRIUM ITERATION     1


 AVERAGE FORCE                      4.601E-02   TIME AVG. FORCE       4.841E-02
 LARGEST RESIDUAL FORCE             8.327E-07   AT NODE        518   DOF  1
   INSTANCE: STRIP                                                                           
 LARGEST INCREMENT OF DISP.        -7.880E-03   AT NODE        511   DOF  1
   INSTANCE: STRIP                                                                           
 LARGEST CORRECTION TO DISP.        3.180E-05   AT NODE       1014   DOF  2
   INSTANCE: STRIP                                                                           
          THE FORCE     EQUILIBRIUM EQUATIONS HAVE CONVERGED
          TIME INCREMENT MAY NOW INCREASE TO    9.707E-02

 ITERATION SUMMARY FOR THE INCREMENT:   1 TOTAL ITERATIONS, OF WHICH
   0 ARE SEVERE DISCONTINUITY ITERATIONS AND  1 ARE EQUILIBRIUM ITERATIONS.

 TIME INCREMENT COMPLETED  6.472E-02,  FRACTION OF STEP COMPLETED  0.194    
 STEP TIME COMPLETED       0.194    ,  TOTAL TIME COMPLETED        0.194    


  INCREMENT    37 STARTS. ATTEMPT NUMBER  1, TIME INCREMENT  9.707E-02

  NUMBER OF EQUATIONS =      4536     NUMBER OF RHS =    1
  NUMBER OF FLOATING PT. OPERATIONS =  6.58E+07

  USING THE DIRECT SOLVER WITH  16 PROCESSORS

     CHECK POINT   START OF SOLVER    

     CHECK POINT  END OF SOLVER       

       ELAPSED USER TIME (SEC)      =  0.30000    
       ELAPSED SYSTEM TIME (SEC)    =  0.10000    
       ELAPSED TOTAL CPU TIME (SEC) =  0.40000    
       ELAPSED WALLCLOCK TIME (SEC) =          0

               CONVERGENCE CHECKS FOR EQUILIBRIUM ITERATION     1


 AVERAGE FORCE                      4.525E-02   TIME AVG. FORCE       4.833E-02
 LARGEST RESIDUAL FORCE             3.043E-06   AT NODE        518   DOF  1
   INSTANCE: STRIP                                                                           
 LARGEST INCREMENT OF DISP.        -1.181E-02   AT NODE        511   DOF  1
   INSTANCE: STRIP                                                                           
 LARGEST CORRECTION TO DISP.        8.212E-05   AT NODE       1014   DOF  2
   INSTANCE: STRIP                                                                           
          THE FORCE     EQUILIBRIUM EQUATIONS HAVE CONVERGED
          TIME INCREMENT MAY NOW INCREASE TO    0.146    

 ITERATION SUMMARY FOR THE INCREMENT:   1 TOTAL ITERATIONS, OF WHICH
   0 ARE SEVERE DISCONTINUITY ITERATIONS AND  1 ARE EQUILIBRIUM ITERATIONS.

 TIME INCREMENT COMPLETED  9.707E-02,  FRACTION OF STEP COMPLETED  0.291    
 STEP TIME COMPLETED       0.291    ,  TOTAL TIME COMPLETED        0.291    


  INCREMENT    38 STARTS. ATTEMPT NUMBER  1, TIME INCREMENT  0.146    

  NUMBER OF EQUATIONS =      4536     NUMBER OF RHS =    1
  NUMBER OF FLOATING PT. OPERATIONS =  6.58E+07

  USING THE DIRECT SOLVER WITH  16 PROCESSORS

     CHECK POINT   START OF SOLVER    

     CHECK POINT  END OF SOLVER       

       ELAPSED USER TIME (SEC)      =  0.40000    
       ELAPSED SYSTEM TIME (SEC)    =  0.10000    
       ELAPSED TOTAL CPU TIME (SEC) =  0.50000    
       ELAPSED WALLCLOCK TIME (SEC) =          0

               CONVERGENCE CHECKS FOR EQUILIBRIUM ITERATION     1


 AVERAGE FORCE                      4.440E-02   TIME AVG. FORCE       4.822E-02
 LARGEST RESIDUAL FORCE             1.240E-05   AT NODE        518   DOF  1
   INSTANCE: STRIP                                                                           
 LARGEST INCREMENT OF DISP.        -1.769E-02   AT NODE        511   DOF  1
   INSTANCE: STRIP                                                                           
 LARGEST CORRECTION TO DISP.        2.322E-04   AT NODE       1014   DOF  2
   INSTANCE: STRIP                                                                           
 ESTIMATE OF DISP.    CORRECTION   -1.128E-07
 FORCE     EQUILIB. ACCEPTED BASED ON SMALL RESIDUAL AND ESTIMATED CORRECTION
          TIME INCREMENT MAY NOW INCREASE TO    0.218    

 ITERATION SUMMARY FOR THE INCREMENT:   1 TOTAL ITERATIONS, OF WHICH
   0 ARE SEVERE DISCONTINUITY ITERATIONS AND  1 ARE EQUILIBRIUM ITERATIONS.

 TIME INCREMENT COMPLETED  0.146    ,  FRACTION OF STEP COMPLETED  0.437    
 STEP TIME COMPLETED       0.437    ,  TOTAL TIME COMPLETED        0.437    


  INCREMENT    39 STARTS. ATTEMPT NUMBER  1, TIME INCREMENT  0.218    

  NUMBER OF EQUATIONS =      4536     NUMBER OF RHS =    1
  NUMBER OF FLOATING PT. OPERATIONS =  6.58E+07

  USING THE DIRECT SOLVER WITH  16 PROCESSORS

     CHECK POINT   START OF SOLVER    

     CHECK POINT  END OF SOLVER       

       ELAPSED USER TIME (SEC)      =  0.50000    
       ELAPSED SYSTEM TIME (SEC)    =  0.10000    
       ELAPSED TOTAL CPU TIME (SEC) =  0.60000    
       ELAPSED WALLCLOCK TIME (SEC) =          0

               CONVERGENCE CHECKS FOR EQUILIBRIUM ITERATION     1


 AVERAGE FORCE                      4.527E-02   TIME AVG. FORCE       4.815E-02
 LARGEST RESIDUAL FORCE            -6.219E-05   AT NODE       1019   DOF  3
   INSTANCE: STRIP                                                                           
 LARGEST INCREMENT OF DISP.        -2.645E-02   AT NODE        511   DOF  1
   INSTANCE: STRIP                                                                           
 LARGEST CORRECTION TO DISP.        7.820E-04   AT NODE       1014   DOF  2
   INSTANCE: STRIP                                                                           
 ESTIMATE OF DISP.    CORRECTION    8.563E-07
 FORCE     EQUILIB. ACCEPTED BASED ON SMALL RESIDUAL AND ESTIMATED CORRECTION
          TIME INCREMENT MAY NOW INCREASE TO    0.328    

 ITERATION SUMMARY FOR THE INCREMENT:   1 TOTAL ITERATIONS, OF WHICH
   0 ARE SEVERE DISCONTINUITY ITERATIONS AND  1 ARE EQUILIBRIUM ITERATIONS.

 TIME INCREMENT COMPLETED  0.218    ,  FRACTION OF STEP COMPLETED  0.655    
 STEP TIME COMPLETED       0.655    ,  TOTAL TIME COMPLETED        0.655    


  INCREMENT    40 STARTS. ATTEMPT NUMBER  1, TIME INCREMENT  0.328    

  NUMBER OF EQUATIONS =      4536     NUMBER OF RHS =    1
  NUMBER OF FLOATING PT. OPERATIONS =  6.58E+07

  USING THE DIRECT SOLVER WITH  16 PROCESSORS

     CHECK POINT   START OF SOLVER    

     CHECK POINT  END OF SOLVER       

       ELAPSED USER TIME (SEC)      =  0.30000    
       ELAPSED SYSTEM TIME (SEC)    =   0.0000    
       ELAPSED TOTAL CPU TIME (SEC) =  0.30000    
       ELAPSED WALLCLOCK TIME (SEC) =          0

               CONVERGENCE CHECKS FOR EQUILIBRIUM ITERATION     1


 AVERAGE FORCE                      5.933E-02   TIME AVG. FORCE       4.843E-02
 LARGEST RESIDUAL FORCE             1.448E-03   AT NODE         27   DOF  3
   INSTANCE: STRIP                                                                           
 LARGEST INCREMENT OF DISP.        -3.980E-02   AT NODE         14   DOF  1
   INSTANCE: STRIP                                                                           
 LARGEST CORRECTION TO DISP.        3.972E-03   AT NODE       1014   DOF  2
   INSTANCE: STRIP                                                                           
          FORCE     EQUILIBRIUM NOT ACHIEVED WITHIN TOLERANCE.

  NUMBER OF EQUATIONS =      4536     NUMBER OF RHS =    1
  NUMBER OF FLOATING PT. OPERATIONS =  6.58E+07

  USING THE DIRECT SOLVER WITH  16 PROCESSORS

     CHECK POINT   START OF SOLVER    

     CHECK POINT  END OF SOLVER       

       ELAPSED USER TIME (SEC)      =  0.20000    
       ELAPSED SYSTEM TIME (SEC)    =  0.10000    
       ELAPSED TOTAL CPU TIME (SEC) =  0.30000    
       ELAPSED WALLCLOCK TIME (SEC) =          1

               CONVERGENCE CHECKS FOR EQUILIBRIUM ITERATION     2


 AVERAGE FORCE                      5.936E-02   TIME AVG. FORCE       4.843E-02
 LARGEST RESIDUAL FORCE            -1.441E-06   AT NODE         12   DOF  1
   INSTANCE: STRIP                                                                           
 LARGEST INCREMENT OF DISP.        -3.980E-02   AT NODE         14   DOF  1
   INSTANCE: STRIP                                                                           
 LARGEST CORRECTION TO DISP.       -6.490E-06   AT NODE        511   DOF  2
   INSTANCE: STRIP                                                                           
          THE FORCE     EQUILIBRIUM EQUATIONS HAVE CONVERGED

 ITERATION SUMMARY FOR THE INCREMENT:   2 TOTAL ITERATIONS, OF WHICH
   0 ARE SEVERE DISCONTINUITY ITERATIONS AND  2 ARE EQUILIBRIUM ITERATIONS.

 TIME INCREMENT COMPLETED  0.328    ,  FRACTION OF STEP COMPLETED  0.983    
 STEP TIME COMPLETED       0.983    ,  TOTAL TIME COMPLETED        0.983    


  INCREMENT    41 STARTS. ATTEMPT NUMBER  1, TIME INCREMENT  1.713E-02

  NUMBER OF EQUATIONS =      4536     NUMBER OF RHS =    1
  NUMBER OF FLOATING PT. OPERATIONS =  6.58E+07

  USING THE DIRECT SOLVER WITH  16 PROCESSORS

     CHECK POINT   START OF SOLVER    

     CHECK POINT  END OF SOLVER       

       ELAPSED USER TIME (SEC)      =  0.60000    
       ELAPSED SYSTEM TIME (SEC)    =  0.10000    
       ELAPSED TOTAL CPU TIME (SEC) =  0.70000    
       ELAPSED WALLCLOCK TIME (SEC) =          0

               CONVERGENCE CHECKS FOR EQUILIBRIUM ITERATION     1


 AVERAGE FORCE                      6.119E-02   TIME AVG. FORCE       4.874E-02
 LARGEST RESIDUAL FORCE             9.881E-06   AT NODE         27   DOF  3
   INSTANCE: STRIP                                                                           
 LARGEST INCREMENT OF DISP.        -2.092E-03   AT NODE         14   DOF  1
   INSTANCE: STRIP                                                                           
 LARGEST CORRECTION TO DISP.        2.731E-04   AT NODE       1014   DOF  2
   INSTANCE: STRIP                                                                           
 ESTIMATE OF DISP.    CORRECTION    1.371E-07
 FORCE     EQUILIB. ACCEPTED BASED ON SMALL RESIDUAL AND ESTIMATED CORRECTION

 ITERATION SUMMARY FOR THE INCREMENT:   1 TOTAL ITERATIONS, OF WHICH
   0 ARE SEVERE DISCONTINUITY ITERATIONS AND  1 ARE EQUILIBRIUM ITERATIONS.

 TIME INCREMENT COMPLETED  1.713E-02,  FRACTION OF STEP COMPLETED   1.00    
 STEP TIME COMPLETED        1.00    ,  TOTAL TIME COMPLETED         1.00    


          THE ANALYSIS HAS BEEN COMPLETED



     ANALYSIS SUMMARY:
     TOTAL OF         41  INCREMENTS
                       0  CUTBACKS IN AUTOMATIC INCREMENTATION
                      50  ITERATIONS INCLUDING CONTACT ITERATIONS IF PRESENT
                      50  PASSES THROUGH THE EQUATION SOLVER OF WHICH 
                      50  INVOLVE MATRIX DECOMPOSITION, INCLUDING
                       0  DECOMPOSITION(S) OF THE MASS MATRIX
                       1  REORDERING OF EQUATIONS TO MINIMIZE WAVEFRONT
                       0  ADDITIONAL RESIDUAL EVALUATIONS FOR LINE SEARCHES
                       0  ADDITIONAL OPERATOR EVALUATIONS FOR LINE SEARCHES
                       2  WARNING MESSAGES DURING USER INPUT PROCESSING
                       2  WARNING MESSAGES DURING ANALYSIS
                       0  ANALYSIS WARNINGS ARE NUMERICAL PROBLEM MESSAGES
                       2  ANALYSIS WARNINGS ARE NEGATIVE EIGENVALUE MESSAGES
                       0  ERROR MESSAGES



     JOB TIME SUMMARY
       USER TIME (SEC)      =   48.000    
       SYSTEM TIME (SEC)    =   18.800    
       TOTAL CPU TIME (SEC) =   66.800    
       WALLCLOCK TIME (SEC) =         18
