*Heading
** Job name: Job-Model_base Model name: Model_base
** Generated by: Abaqus/CAE 2021
*Preprint, echo=NO, model=NO, history=NO, contact=NO
**
** PARTS
**
*Part, name=mould
*Node
      1,           0.,          10.,           0.
      2,           0.,         -10.,           0.
      3,   40.5464745,  -8.86614418,           0.
      4,   39.4116096,   11.1016312,           0.
      5,           0.,          10.,           8.
      6,   39.4116096,   11.1016312,           8.
      7,           0.,           9.,           0.
      8,           0.,           8.,           0.
      9,           0.,           7.,           0.
     10,           0.,           6.,           0.
     11,           0.,           5.,           0.
     12,           0.,           4.,           0.
     13,           0.,           3.,           0.
     14,           0.,           2.,           0.
     15,           0.,           1.,           0.
     16,           0.,           0.,           0.
     17,           0.,          -1.,           0.
     18,           0.,          -2.,           0.
     19,           0.,          -3.,           0.
     20,           0.,          -4.,           0.
** ... 1169 like lines cut
*Element, type=R3D4
  1,   1,   7, 176, 122
  2,   7,   8, 177, 176
  3,   8,   9, 178, 177
  4,   9,  10, 179, 178
  5,  10,  11, 180, 179
  6,  11,  12, 181, 180
  7,  12,  13, 182, 181
  8,  13,  14, 183, 182
  9,  14,  15, 184, 183
 10,  15,  16, 185, 184
 11,  16,  17, 186, 185
 12,  17,  18, 187, 186
 13,  18,  19, 188, 187
 14,  19,  20, 189, 188
 15,  20,  21, 190, 189
 16,  21,  22, 191, 190
 17,  22,  23, 192, 191
 18,  23,  24, 193, 192
 19,  24,  25, 194, 193
 20,  25,   2,  26, 194
** ... 1100 like lines cut
*Node
   1190, -7.14684049e-22,          10., 9.00543407e-16
*Nset, nset=mould-RefPt_, internal
1190, 
*Elset, elset=_surf_down_SNEG, internal, generate
    1,  1120,     1
*Surface, type=ELEMENT, name=surf_down
_surf_down_SNEG, SNEG
*Elset, elset=_surf_up_SPOS, internal, generate
    1,  1120,     1
*Surface, type=ELEMENT, name=surf_up
_surf_up_SPOS, SPOS
*Elset, elset=mould, generate
    1,  1120,     1
*End Part
**  
*Part, name=rotate
*Node
      1,           5.,           5.,           4.
      2,           5.,          -5.,           4.
      3,           5.,          -5.,           0.
      4,           5.,           5.,           0.
      5,          -5.,          -5.,           4.
      6,          -5.,          -5.,           0.
      7,          -5.,           5.,           4.
      8,          -5.,           5.,           0.
*Element, type=R3D4
1, 1, 2, 3, 4
2, 2, 5, 6, 3
3, 5, 7, 8, 6
4, 7, 1, 4, 8
5, 2, 1, 7, 5
6, 8, 4, 3, 6
*Node
      9,           0.,           0.,           2.
*Nset, nset=rotate-RefPt_, internal
9, 
*Nset, nset=_PickedSet11, internal, generate
 1,  9,  1
*Elset, elset=rotate, generate
 1,  6,  1
*Element, type=MASS, elset=_PickedSet11_inertia_MASS_
7, 1
8, 2
9, 3
10, 4
11, 5
12, 6
13, 7
14, 8
15, 9
*Mass, elset=_PickedSet11_inertia_MASS_
1e-09, 
*Element, type=ROTARYI, elset=_PickedSet11_inertia_ROTI_
16, 1
17, 2
18, 3
19, 4
20, 5
21, 6
22, 7
23, 8
24, 9
*Rotary Inertia, elset=_PickedSet11_inertia_ROTI_
1e-09, 1e-09, 1e-09, 0., 0., 0.
*End Part
**  
*Part, name=strip
*Node
      1,           0.,           2.,          50.
      2,           0.,   1.33333337,          50.
      3,           0.,  0.666666687,          50.
      4,           0.,           0.,          50.
      5,           0., -0.666666687,          50.
      6,           0.,  -1.33333337,          50.
      7,           0.,          -2.,          50.
      8,           0.,           2.,   49.2957764
      9,           0.,   1.33333337,   49.2957764
     10,           0.,  0.666666687,   49.2957764
     11,           0.,           0.,   49.2957764
     12,           0., -0.666666687,   49.2957764
     13,           0.,  -1.33333337,   49.2957764
     14,           0.,          -2.,   49.2957764
     15,           0.,           2.,   48.5915489
     16,           0.,   1.33333337,   48.5915489
     17,           0.,  0.666666687,   48.5915489
     18,           0.,           0.,   48.5915489
     19,           0., -0.666666687,   48.5915489
     20,           0.,  -1.33333337,   48.5915489
** ... 1492 like lines cut
*Element, type=C3D8R
  1,  505,  506,  513,  512,    1,    2,    9,    8
  2,  506,  507,  514,  513,    2,    3,   10,    9
  3,  507,  508,  515,  514,    3,    4,   11,   10
  4,  508,  509,  516,  515,    4,    5,   12,   11
  5,  509,  510,  517,  516,    5,    6,   13,   12
  6,  510,  511,  518,  517,    6,    7,   14,   13
  7,  512,  513,  520,  519,    8,    9,   16,   15
  8,  513,  514,  521,  520,    9,   10,   17,   16
  9,  514,  515,  522,  521,   10,   11,   18,   17
 10,  515,  516,  523,  522,   11,   12,   19,   18
 11,  516,  517,  524,  523,   12,   13,   20,   19
 12,  517,  518,  525,  524,   13,   14,   21,   20
 13,  519,  520,  527,  526,   15,   16,   23,   22
 14,  520,  521,  528,  527,   16,   17,   24,   23
 15,  521,  522,  529,  528,   17,   18,   25,   24
 16,  522,  523,  530,  529,   18,   19,   26,   25
 17,  523,  524,  531,  530,   19,   20,   27,   26
 18,  524,  525,  532,  531,   20,   21,   28,   27
 19,  526,  527,  534,  533,   22,   23,   30,   29
 20,  527,  528,  535,  534,   23,   24,   31,   30
** ... 832 like lines cut
*Nset, nset=set_fixed
  498,  499,  500,  501,  502,  503,  504, 1002, 1003, 1004, 1005, 1006, 1007, 1008, 1506, 1507
 1508, 1509, 1510, 1511, 1512
*Elset, elset=set_fixed
 421, 422, 423, 424, 425, 426, 847, 848, 849, 850, 851, 852
*Nset, nset=set_all, generate
    1,  1512,     1
*Elset, elset=set_all, generate
   1,  852,    1
*Elset, elset=_surf_length_S1, internal, generate
 427,  852,    1
*Elset, elset=_surf_length_S6, internal, generate
   1,  847,    6
*Elset, elset=_surf_length_S2, internal, generate
   1,  426,    1
*Elset, elset=_surf_length_S4, internal, generate
   6,  852,    6
*Surface, type=ELEMENT, name=surf_length
_surf_length_S1, S1
_surf_length_S6, S6
_surf_length_S2, S2
_surf_length_S4, S4
*Elset, elset=_surf_free_S3, internal
   1,   2,   3,   4,   5,   6, 427, 428, 429, 430, 431, 432
*Surface, type=ELEMENT, name=surf_free
_surf_free_S3, S3
*Elset, elset=_surf_fixed_S5, internal
 421, 422, 423, 424, 425, 426, 847, 848, 849, 850, 851, 852
*Surface, type=ELEMENT, name=surf_fixed
_surf_fixed_S5, S5
** Section: Section-AL
*Solid Section, elset=set_all, material=AL
,
*End Part
**  
**
** ASSEMBLY
**
*Assembly, name=Assembly
**  
*Instance, name=translate, part=rotate
        369.,           0., -1.22464679914735e-16
        369.,           0., -1.22464679914735e-16,         369., 1.00000001268805, -1.22464679914735e-16, 89.9999992730282
*End Instance
**  
*Instance, name=rotate-z, part=rotate
        331.,           0.,          -2.
        331.,           0.,          -2.,         331.,           0., -0.999999987311948, 89.9999992730282
*End Instance
**  
*Instance, name=rotate-y, part=rotate
        255.,           2., -1.22464679914735e-16
        255.,           2., -1.22464679914735e-16, 256.000000012688,           2., -1.22464679914735e-16, 89.9999992730282
*End Instance
**  
*Instance, name=rotate-x, part=rotate
         50.,           0., -1.22464679914735e-16
         50.,           0., -1.22464679914735e-16,          50., 1.00000001268805, -1.22464679914735e-16, 89.9999992730282
*End Instance
**  
*Instance, name=strip, part=strip
          0.,           0.,           0.
          0.,           0.,           0.,           0., 1.00000001268805,           0., 89.9999992730282
*End Instance
**  
*Instance, name=mould, part=mould
          0.,          -8.,           0.
*End Instance
**  
*Element, type=CONN3D2
1, translate.9, rotate-z.9
*Connector Section, elset=wire-z-Set-1, behavior=ConnSect-Hinge
Hinge,
csys-z,
*Element, type=CONN3D2
2, rotate-z.9, rotate-y.9
*Connector Section, elset=wire-y-Set-1, behavior=ConnSect-Hinge
Hinge,
csys-y,
*Element, type=CONN3D2
3, rotate-y.9, rotate-x.9
*Connector Section, elset=wire-x-Set-1, behavior=ConnSect-Hinge
Hinge,
csys-x,
*Nset, nset=wire-x-Set-1, instance=rotate-y
 9,
*Nset, nset=wire-x-Set-1, instance=rotate-x
 9,
*Elset, elset=wire-x-Set-1
 3,
*Nset, nset=wire-y-Set-1, instance=rotate-z
 9,
*Nset, nset=wire-y-Set-1, instance=rotate-y
 9,
*Elset, elset=wire-y-Set-1
 2,
*Nset, nset=wire-z-Set-1, instance=translate
 9,
*Nset, nset=wire-z-Set-1, instance=rotate-z
 9,
*Elset, elset=wire-z-Set-1
 1,
*Nset, nset=_PickedSet24, internal, instance=mould
 1190,
*Nset, nset=_PickedSet25, internal, instance=translate
 9,
*Nset, nset=_PickedSet26, internal, instance=translate
 9,
*Nset, nset=_PickedSet27, internal, instance=translate
 9,
*Nset, nset=_PickedSet28, internal, instance=translate
 9,
*Elset, elset=_PickedSet29, internal
 1,
*Elset, elset=_PickedSet30, internal
 2,
*Elset, elset=_PickedSet31, internal
 3,
*Elset, elset=_clamp_left_SPOS, internal, instance=rotate-x
 6,
*Surface, type=ELEMENT, name=clamp_left
_clamp_left_SPOS, SPOS
*Rigid Body, ref node=translate.rotate-RefPt_, elset=translate.rotate
*Rigid Body, ref node=rotate-z.rotate-RefPt_, elset=rotate-z.rotate
*Rigid Body, ref node=rotate-y.rotate-RefPt_, elset=rotate-y.rotate
*Rigid Body, ref node=rotate-x.rotate-RefPt_, elset=rotate-x.rotate
*Rigid Body, ref node=mould.mould-RefPt_, elset=mould.mould
*Orientation, name=csys-z
          0.,           0.,           1.,           0.,           1.,           0.
1, 0.
*Orientation, name=csys-y
          0.,           1.,           0.,           0.,           0.,           1.
1, 0.
*Orientation, name=csys-x
          1.,           0.,           0.,           0.,           1.,           0.
1, 0.
** Constraint: constraint_clamp_strip
*Tie, name=constraint_clamp_strip, adjust=yes
strip.surf_free, clamp_left
*End Assembly
*Connector Behavior, name=ConnSect-Hinge
*Connector Elasticity, rigid
4
*Amplitude, name=amp_basic, definition=SMOOTH STEP
             0.,              0.,             0.1,              1.
** 
** MATERIALS
** 
*Material, name=AL
*Damping, alpha=130.
*Density
 2.7e-09,
*Elastic
69000., 0.37
*Plastic
 155.239,          0.
 157.258, 0.000240422
 159.064, 0.000565474
 160.741, 0.000913373
 162.366,  0.00134193
 163.901,  0.00187177
 165.351,  0.00236361
 166.748,  0.00284653
  168.08,     0.00342
 170.396,  0.00391011
 171.484,   0.0044491
 172.516,  0.00512775
 173.581,  0.00590409
 174.556,   0.0067017
   175.4,  0.00751166
 176.326,  0.00831897
 177.145,  0.00912814
 177.886,  0.00986952
 178.663,   0.0107276
 179.419,    0.011615
** ... 20 like lines cut
** 
** INTERACTION PROPERTIES
** 
*Surface Interaction, name=IntProp-1
*Friction
 0.1,
*Surface Behavior, pressure-overclosure=HARD
** 
** BOUNDARY CONDITIONS
** 
** Name: mould Type: Symmetry/Antisymmetry/Encastre
*Boundary
_PickedSet24, ENCASTRE
** Name: rotate_x Type: Connector displacement
*Connector Motion
_PickedSet31, 4
** Name: rotate_y Type: Connector displacement
*Connector Motion
_PickedSet30, 4
** Name: rotate_z Type: Connector displacement
*Connector Motion
_PickedSet29, 4
** Name: strip_fixed Type: Symmetry/Antisymmetry/Encastre
*Boundary
strip.set_fixed, ENCASTRE
** Name: translate_fix_rotate Type: Displacement/Rotation
*Boundary
_PickedSet25, 4, 4
_PickedSet25, 5, 5
_PickedSet25, 6, 6
** Name: translate_x Type: Displacement/Rotation
*Boundary
_PickedSet26, 1, 1
** Name: translate_y Type: Displacement/Rotation
*Boundary
_PickedSet27, 2, 2
** Name: translate_z Type: Displacement/Rotation
*Boundary
_PickedSet28, 3, 3
** 
** INTERACTIONS
** 
** Interaction: Int-1
*Contact, op=NEW
*Contact Inclusions
mould.surf_up , strip.surf_length
mould.surf_down , strip.surf_length
*Contact Property Assignment
 ,  , IntProp-1
** ----------------------------------------------------------------
** 
** STEP: Step-0
** 
*Step, name=Step-0, nlgeom=YES
*Dynamic, Explicit
, 0.1
*Bulk Viscosity
0.06, 1.2
** Mass Scaling: Semi-Automatic
**               Whole Model
*Fixed Mass Scaling, factor=200.
** 
** BOUNDARY CONDITIONS
** 
** Name: rotate_x Type: Connector displacement
*Connector Motion, amplitude=amp_basic
_PickedSet31, 4
** Name: rotate_y Type: Connector displacement
*Connector Motion, amplitude=amp_basic
_PickedSet30, 4
** Name: rotate_z Type: Connector displacement
*Connector Motion, amplitude=amp_basic
_PickedSet29, 4
** Name: translate_fix_rotate Type: Displacement/Rotation
*Boundary, amplitude=amp_basic
_PickedSet25, 4, 4
_PickedSet25, 5, 5
_PickedSet25, 6, 6
** Name: translate_x Type: Displacement/Rotation
*Boundary, amplitude=amp_basic
_PickedSet26, 1, 1, 0.1
** Name: translate_y Type: Displacement/Rotation
*Boundary, amplitude=amp_basic
_PickedSet27, 2, 2
** Name: translate_z Type: Displacement/Rotation
*Boundary, amplitude=amp_basic
_PickedSet28, 3, 3
** 
** OUTPUT REQUESTS
** 
*Restart, write, number interval=1, time marks=NO
** 
** FIELD OUTPUT: F-Output-1
** 
*Output, field, variable=PRESELECT
** 
** HISTORY OUTPUT: H-Output-1
** 
*Output, history, variable=PRESELECT
*End Step
** ----------------------------------------------------------------
** 
** STEP: Step-1
** 
*Step, name=Step-1, nlgeom=YES
*Dynamic, Explicit
, 0.1
*Bulk Viscosity
0.06, 1.2
** 
** BOUNDARY CONDITIONS
** 
** Name: rotate_x Type: Connector displacement
*Connector Motion, amplitude=amp_basic
_PickedSet31, 4
** Name: rotate_y Type: Connector displacement
*Connector Motion, amplitude=amp_basic
_PickedSet30, 4
** Name: rotate_z Type: Connector displacement
*Connector Motion, amplitude=amp_basic
_PickedSet29, 4, 0.0390341
** Name: translate_x Type: Displacement/Rotation
*Boundary, amplitude=amp_basic
_PickedSet26, 1, 1, -0.152115
** Name: translate_y Type: Displacement/Rotation
*Boundary, amplitude=amp_basic
_PickedSet27, 2, 2, 11.9845
** Name: translate_z Type: Displacement/Rotation
*Boundary, amplitude=amp_basic
_PickedSet28, 3, 3
** 
** OUTPUT REQUESTS
** 
*Restart, write, number interval=1, time marks=NO
** 
** FIELD OUTPUT: F-Output-1
** 
*Output, field, variable=PRESELECT
** 
** HISTORY OUTPUT: H-Output-1
** 
*Output, history, variable=PRESELECT
*End Step
** ----------------------------------------------------------------
** 
** STEP: Step-2
** 
*Step, name=Step-2, nlgeom=YES
*Dynamic, Explicit
, 0.1
*Bulk Viscosity
0.06, 1.2
** 
** BOUNDARY CONDITIONS
** 
** Name: rotate_x Type: Connector displacement
*Connector Motion, amplitude=amp_basic
_PickedSet31, 4
** Name: rotate_y Type: Connector displacement
*Connector Motion, amplitude=amp_basic
_PickedSet30, 4
** Name: rotate_z Type: Connector displacement
*Connector Motion, amplitude=amp_basic
_PickedSet29, 4, 0.0165195
** Name: translate_x Type: Displacement/Rotation
*Boundary, amplitude=amp_basic
_PickedSet26, 1, 1, -0.191258
** Name: translate_y Type: Displacement/Rotation
*Boundary, amplitude=amp_basic
_PickedSet27, 2, 2, 4.747
** Name: translate_z Type: Displacement/Rotation
*Boundary, amplitude=amp_basic
_PickedSet28, 3, 3
** 
** OUTPUT REQUESTS
** 
*Restart, write, number interval=1, time marks=NO
** 
** FIELD OUTPUT: F-Output-1
** 
*Output, field, variable=PRESELECT
** 
** HISTORY OUTPUT: H-Output-1
** 
*Output, history, variable=PRESELECT
*End Step
